# Mol2 file generated by Materials Studio
@<TRIPOS>MOLECULE
structure
8400 8400 0 0 0 
SMALL
USER_CHARGES


@<TRIPOS>ATOM
1 C1 9.40958 3.05232 3.2879 C.3 0 **** 0.268
2 C2 11.6745 1.97142 3.36997 C.3 0 **** 0.268
3 N1 9.76269 0.734316 2.46344 N.2 0 **** 0.856
4 N2 10.2793 1.92201 2.97516 N.2 0 **** -0.374
5 N3 9.29199 3.25453 4.7389 N.2 0 **** -0.374
6 N4 8.79275 2.26073 5.57645 N.2 0 **** 0.856
7 O1 8.60523 0.739674 2.10995 O.2 0 **** -0.428
8 O2 10.5194 -0.210023 2.40412 O.2 0 **** -0.428
9 O3 8.76277 2.49767 6.76357 O.2 0 **** -0.428
10 O4 8.42368 1.23171 5.0538 O.2 0 **** -0.428
11 H 8.40852 2.85139 2.87022 H 0 **** 0.053
12 H 9.75529 3.96049 2.76416 H 0 **** 0.053
13 H 12.3064 1.74699 2.49306 H 0 **** 0.053
14 H 11.8916 1.16464 4.09157 H 0 **** 0.053
15 C1 11.9682 3.47839 5.35471 C.3 0 **** 0.268
16 C2 9.70327 4.55928 5.27264 C.3 0 **** 0.268
17 N1 11.6151 5.79639 6.17917 N.2 0 **** 0.856
18 N2 11.0985 4.6087 5.66745 N.2 0 **** -0.374
19 N3 12.0858 3.27618 3.90371 N.2 0 **** -0.374
20 N4 12.585 4.26998 3.06617 N.2 0 **** 0.856
21 O1 12.7726 5.79103 6.53267 O.2 0 **** -0.428
22 O2 10.8584 6.74073 6.23849 O.2 0 **** -0.428
23 O3 12.615 4.03303 1.87904 O.2 0 **** -0.428
24 O4 12.9541 5.29899 3.58881 O.2 0 **** -0.428
25 H 12.9693 3.67932 5.77239 H 0 **** 0.053
26 H 11.6225 2.57021 5.87846 H 0 **** 0.053
27 H 9.07139 4.78372 6.14956 H 0 **** 0.053
28 H 9.48617 5.36606 4.55104 H 0 **** 0.053
29 C1 0.146524 3.05232 9.31271 C.3 0 **** 0.268
30 C2 2.41147 1.97142 9.39477 C.3 0 **** 0.268
31 N1 0.49963 0.734316 8.48825 N.2 0 **** 0.856
32 N2 1.01629 1.92201 8.99997 N.2 0 **** -0.374
33 N3 0.0289297 3.25453 10.7637 N.2 0 **** -0.374
34 N4 -0.470303 2.26073 11.6013 N.2 0 **** 0.856
35 O1 -0.657826 0.739674 8.13475 O.2 0 **** -0.428
36 O2 1.25637 -0.210023 8.42893 O.2 0 **** -0.428
37 O3 -0.500291 2.49767 12.7884 O.2 0 **** -0.428
38 O4 -0.83938 1.23171 11.0786 O.2 0 **** -0.428
39 H -0.854539 2.85139 8.89502 H 0 **** 0.053
40 H 0.492233 3.96049 8.78896 H 0 **** 0.053
41 H 3.04335 1.74699 8.51786 H 0 **** 0.053
42 H 2.62858 1.16464 10.1164 H 0 **** 0.053
43 C1 2.70516 3.47839 11.3795 C.3 0 **** 0.268
44 C2 0.440215 4.55928 11.2975 C.3 0 **** 0.268
45 N1 2.35206 5.79639 12.204 N.2 0 **** 0.856
46 N2 1.8354 4.6087 11.6923 N.2 0 **** -0.374
47 N3 2.82276 3.27618 9.92852 N.2 0 **** -0.374
48 N4 3.32199 4.26998 9.09097 N.2 0 **** 0.856
49 O1 3.50951 5.79103 12.5575 O.2 0 **** -0.428
50 O2 1.59532 6.74073 12.2633 O.2 0 **** -0.428
51 O3 3.35198 4.03303 7.90385 O.2 0 **** -0.428
52 O4 3.69107 5.29899 9.61362 O.2 0 **** -0.428
53 H 3.70622 3.67931 11.7972 H 0 **** 0.053
54 H 2.35945 2.57021 11.9033 H 0 **** 0.053
55 H -0.191663 4.78372 12.1744 H 0 **** 0.053
56 H 0.22311 5.36606 10.5758 H 0 **** 0.053
57 C1 22.5912 4.68964 3.2879 C.3 0 **** 0.268
58 C2 24.8562 3.60875 3.36997 C.3 0 **** 0.268
59 N1 22.9444 2.37164 2.46344 N.2 0 **** 0.856
60 N2 23.461 3.55933 2.97516 N.2 0 **** -0.374
61 N3 22.4737 4.89185 4.7389 N.2 0 **** -0.374
62 N4 21.9744 3.89805 5.57645 N.2 0 **** 0.856
63 O1 21.7869 2.377 2.10995 O.2 0 **** -0.428
64 O2 23.7011 1.4273 2.40412 O.2 0 **** -0.428
65 O3 21.9444 4.135 6.76357 O.2 0 **** -0.428
66 O4 21.6053 2.86904 5.0538 O.2 0 **** -0.428
67 H 21.5902 4.48872 2.87022 H 0 **** 0.053
68 H 22.937 5.59782 2.76416 H 0 **** 0.053
69 H 25.4881 3.38431 2.49306 H 0 **** 0.053
70 H 25.0733 2.80197 4.09157 H 0 **** 0.053
71 C1 25.1499 5.11571 5.35471 C.3 0 **** 0.268
72 C2 22.8849 6.19661 5.27264 C.3 0 **** 0.268
73 N1 24.7968 7.43371 6.17917 N.2 0 **** 0.856
74 N2 24.2801 6.24602 5.66745 N.2 0 **** -0.374
75 N3 25.2675 4.9135 3.90371 N.2 0 **** -0.374
76 N4 25.7667 5.9073 3.06617 N.2 0 **** 0.856
77 O1 25.9542 7.42836 6.53267 O.2 0 **** -0.428
78 O2 24.04 8.37805 6.23849 O.2 0 **** -0.428
79 O3 25.7967 5.67036 1.87904 O.2 0 **** -0.428
80 O4 26.1358 6.93632 3.58881 O.2 0 **** -0.428
81 H 26.1509 5.31664 5.77239 H 0 **** 0.053
82 H 24.8042 4.20754 5.87846 H 0 **** 0.053
83 H 22.2531 6.42104 6.14956 H 0 **** 0.053
84 H 22.6678 7.00339 4.55104 H 0 **** 0.053
85 C1 9.40958 9.59232 3.2879 C.3 0 **** 0.268
86 C2 11.6745 8.51142 3.36997 C.3 0 **** 0.268
87 N1 9.76269 7.27432 2.46344 N.2 0 **** 0.856
88 N2 10.2793 8.46201 2.97516 N.2 0 **** -0.374
89 N3 9.29199 9.79453 4.7389 N.2 0 **** -0.374
90 N4 8.79275 8.80073 5.57645 N.2 0 **** 0.856
91 O1 8.60523 7.27967 2.10995 O.2 0 **** -0.428
92 O2 10.5194 6.32998 2.40412 O.2 0 **** -0.428
93 O3 8.76277 9.03767 6.76357 O.2 0 **** -0.428
94 O4 8.42368 7.77171 5.0538 O.2 0 **** -0.428
95 H 8.40852 9.39139 2.87022 H 0 **** 0.053
96 H 9.75529 10.5005 2.76416 H 0 **** 0.053
97 H 12.3064 8.28699 2.49306 H 0 **** 0.053
98 H 11.8916 7.70464 4.09157 H 0 **** 0.053
99 C1 11.9682 10.0184 5.35471 C.3 0 **** 0.268
100 C2 9.70327 11.0993 5.27264 C.3 0 **** 0.268
101 N1 11.6151 12.3364 6.17917 N.2 0 **** 0.856
102 N2 11.0985 11.1487 5.66745 N.2 0 **** -0.374
103 N3 12.0858 9.81618 3.90371 N.2 0 **** -0.374
104 N4 12.585 10.81 3.06617 N.2 0 **** 0.856
105 O1 12.7726 12.331 6.53267 O.2 0 **** -0.428
106 O2 10.8584 13.2807 6.23849 O.2 0 **** -0.428
107 O3 12.615 10.573 1.87904 O.2 0 **** -0.428
108 O4 12.9541 11.839 3.58881 O.2 0 **** -0.428
109 H 12.9693 10.2193 5.77239 H 0 **** 0.053
110 H 11.6225 9.11021 5.87846 H 0 **** 0.053
111 H 9.07139 11.3237 6.14956 H 0 **** 0.053
112 H 9.48617 11.9061 4.55104 H 0 **** 0.053
113 C1 13.3282 4.68964 9.31271 C.3 0 **** 0.268
114 C2 15.5931 3.60875 9.39477 C.3 0 **** 0.268
115 N1 13.6813 2.37164 8.48825 N.2 0 **** 0.856
116 N2 14.198 3.55933 8.99997 N.2 0 **** -0.374
117 N3 13.2106 4.89185 10.7637 N.2 0 **** -0.374
118 N4 12.7114 3.89805 11.6013 N.2 0 **** 0.856
119 O1 12.5238 2.377 8.13475 O.2 0 **** -0.428
120 O2 14.438 1.4273 8.42893 O.2 0 **** -0.428
121 O3 12.6814 4.135 12.7884 O.2 0 **** -0.428
122 O4 12.3423 2.86904 11.0786 O.2 0 **** -0.428
123 H 12.3271 4.48872 8.89502 H 0 **** 0.053
124 H 13.6739 5.59782 8.78896 H 0 **** 0.053
125 H 16.225 3.38431 8.51786 H 0 **** 0.053
126 H 15.8102 2.80197 10.1164 H 0 **** 0.053
127 C1 15.8868 5.11571 11.3795 C.3 0 **** 0.268
128 C2 13.6219 6.19661 11.2975 C.3 0 **** 0.268
129 N1 15.5337 7.43371 12.204 N.2 0 **** 0.856
130 N2 15.0171 6.24602 11.6923 N.2 0 **** -0.374
131 N3 16.0044 4.9135 9.92852 N.2 0 **** -0.374
132 N4 16.5037 5.9073 9.09097 N.2 0 **** 0.856
133 O1 16.6912 7.42836 12.5575 O.2 0 **** -0.428
134 O2 14.777 8.37805 12.2633 O.2 0 **** -0.428
135 O3 16.5336 5.67036 7.90385 O.2 0 **** -0.428
136 O4 16.8727 6.93632 9.61362 O.2 0 **** -0.428
137 H 16.8879 5.31664 11.7972 H 0 **** 0.053
138 H 15.5411 4.20754 11.9033 H 0 **** 0.053
139 H 12.99 6.42104 12.1744 H 0 **** 0.053
140 H 13.4048 7.00339 10.5758 H 0 **** 0.053
141 C1 0.146524 9.59232 9.31271 C.3 0 **** 0.268
142 C2 2.41147 8.51142 9.39477 C.3 0 **** 0.268
143 N1 0.49963 7.27432 8.48825 N.2 0 **** 0.856
144 N2 1.01629 8.46201 8.99997 N.2 0 **** -0.374
145 N3 0.0289297 9.79453 10.7637 N.2 0 **** -0.374
146 N4 -0.470303 8.80073 11.6013 N.2 0 **** 0.856
147 O1 -0.657826 7.27967 8.13475 O.2 0 **** -0.428
148 O2 1.25637 6.32998 8.42893 O.2 0 **** -0.428
149 O3 -0.500291 9.03767 12.7884 O.2 0 **** -0.428
150 O4 -0.83938 7.77171 11.0786 O.2 0 **** -0.428
151 H -0.854539 9.39139 8.89502 H 0 **** 0.053
152 H 0.492233 10.5005 8.78896 H 0 **** 0.053
153 H 3.04335 8.28699 8.51786 H 0 **** 0.053
154 H 2.62858 7.70464 10.1164 H 0 **** 0.053
155 C1 2.70516 10.0184 11.3795 C.3 0 **** 0.268
156 C2 0.440215 11.0993 11.2975 C.3 0 **** 0.268
157 N1 2.35206 12.3364 12.204 N.2 0 **** 0.856
158 N2 1.8354 11.1487 11.6923 N.2 0 **** -0.374
159 N3 2.82276 9.81618 9.92852 N.2 0 **** -0.374
160 N4 3.32199 10.81 9.09097 N.2 0 **** 0.856
161 O1 3.50951 12.331 12.5575 O.2 0 **** -0.428
162 O2 1.59532 13.2807 12.2633 O.2 0 **** -0.428
163 O3 3.35198 10.573 7.90385 O.2 0 **** -0.428
164 O4 3.69107 11.839 9.61362 O.2 0 **** -0.428
165 H 3.70622 10.2193 11.7972 H 0 **** 0.053
166 H 2.35945 9.11021 11.9033 H 0 **** 0.053
167 H -0.191663 11.3237 12.1744 H 0 **** 0.053
168 H 0.22311 11.9061 10.5758 H 0 **** 0.053
169 C1 4.06513 4.68964 15.3375 C.3 0 **** 0.268
170 C2 6.33008 3.60875 15.4196 C.3 0 **** 0.268
171 N1 4.41824 2.37164 14.5131 N.2 0 **** 0.856
172 N2 4.93489 3.55933 15.0248 N.2 0 **** -0.374
173 N3 3.94754 4.89185 16.7885 N.2 0 **** -0.374
174 N4 3.4483 3.89805 17.6261 N.2 0 **** 0.856
175 O1 3.26078 2.377 14.1596 O.2 0 **** -0.428
176 O2 5.17497 1.4273 14.4537 O.2 0 **** -0.428
177 O3 3.41832 4.135 18.8132 O.2 0 **** -0.428
178 O4 3.07923 2.86904 17.1034 O.2 0 **** -0.428
179 H 3.06407 4.48872 14.9198 H 0 **** 0.053
180 H 4.41084 5.59782 14.8138 H 0 **** 0.053
181 H 6.96196 3.38431 14.5427 H 0 **** 0.053
182 H 6.54718 2.80197 16.1412 H 0 **** 0.053
183 C1 6.62377 5.11571 17.4043 C.3 0 **** 0.268
184 C2 4.35882 6.19661 17.3223 C.3 0 **** 0.268
185 N1 6.27066 7.43371 18.2288 N.2 0 **** 0.856
186 N2 5.754 6.24602 17.7171 N.2 0 **** -0.374
187 N3 6.74136 4.9135 15.9533 N.2 0 **** -0.374
188 N4 7.2406 5.9073 15.1158 N.2 0 **** 0.856
189 O1 7.42812 7.42836 18.5823 O.2 0 **** -0.428
190 O2 5.51393 8.37805 18.2881 O.2 0 **** -0.428
191 O3 7.27058 5.67036 13.9287 O.2 0 **** -0.428
192 O4 7.60967 6.93632 15.6384 O.2 0 **** -0.428
193 H 7.62483 5.31664 17.822 H 0 **** 0.053
194 H 6.27806 4.20754 17.9281 H 0 **** 0.053
195 H 3.72694 6.42104 18.1992 H 0 **** 0.053
196 H 4.14172 7.00339 16.6007 H 0 **** 0.053
197 C1 -1.27932 -0.213034 27.3871 C.3 0 **** 0.268
198 C2 0.985628 -1.29393 27.4692 C.3 0 **** 0.268
199 N1 -0.926213 -2.53104 26.5627 N.2 0 **** 0.856
200 N2 -0.409555 -1.34335 27.0744 N.2 0 **** -0.374
201 N3 -1.39691 -0.0108227 28.8381 N.2 0 **** -0.374
202 N4 -1.89615 -1.00463 29.6757 N.2 0 **** 0.856
203 O1 -2.08367 -2.52568 26.2092 O.2 0 **** -0.428
204 O2 -0.169476 -3.47538 26.5033 O.2 0 **** -0.428
205 O3 -1.92613 -0.767679 30.8628 O.2 0 **** -0.428
206 O4 -2.26522 -2.03364 29.153 O.2 0 **** -0.428
207 H -2.28038 -0.413962 26.9694 H 0 **** 0.053
208 H -0.93361 0.695142 26.8634 H 0 **** 0.053
209 H 1.61751 -1.51837 26.5923 H 0 **** 0.053
210 H 1.20273 -2.10071 28.1908 H 0 **** 0.053
211 C1 1.27932 0.213034 29.4539 C.3 0 **** 0.268
212 C2 -0.985628 1.29393 29.3719 C.3 0 **** 0.268
213 N1 0.926213 2.53104 30.2784 N.2 0 **** 0.856
214 N2 0.409555 1.34335 29.7667 N.2 0 **** -0.374
215 N3 1.39691 0.0108227 28.0029 N.2 0 **** -0.374
216 N4 1.89615 1.00463 27.1654 N.2 0 **** 0.856
217 O1 2.08367 2.52568 30.6319 O.2 0 **** -0.428
218 O2 0.169476 3.47538 30.3377 O.2 0 **** -0.428
219 O3 1.92613 0.767679 25.9783 O.2 0 **** -0.428
220 O4 2.26522 2.03364 27.688 O.2 0 **** -0.428
221 H 2.28038 0.413962 29.8716 H 0 **** 0.053
222 H 0.93361 -0.695142 29.9777 H 0 **** 0.053
223 H -1.61751 1.51837 30.2488 H 0 **** 0.053
224 H -1.20273 2.10071 28.6503 H 0 **** 0.053
225 C1 35.7729 6.32697 3.2879 C.3 0 **** 0.268
226 C2 38.0379 5.24607 3.36997 C.3 0 **** 0.268
227 N1 36.126 4.00896 2.46344 N.2 0 **** 0.856
228 N2 36.6427 5.19666 2.97516 N.2 0 **** -0.374
229 N3 35.6553 6.52918 4.7389 N.2 0 **** -0.374
230 N4 35.1561 5.53537 5.57645 N.2 0 **** 0.856
231 O1 34.9686 4.01432 2.10995 O.2 0 **** -0.428
232 O2 36.8828 3.06462 2.40412 O.2 0 **** -0.428
233 O3 35.1261 5.77232 6.76357 O.2 0 **** -0.428
234 O4 34.787 4.50636 5.0538 O.2 0 **** -0.428
235 H 34.7718 6.12604 2.87022 H 0 **** 0.053
236 H 36.1186 7.23514 2.76416 H 0 **** 0.053
237 H 38.6697 5.02163 2.49306 H 0 **** 0.053
238 H 38.255 4.43929 4.09157 H 0 **** 0.053
239 C1 38.3315 6.75303 5.35471 C.3 0 **** 0.268
240 C2 36.0666 7.83393 5.27264 C.3 0 **** 0.268
241 N1 37.9784 9.07104 6.17917 N.2 0 **** 0.856
242 N2 37.4618 7.88335 5.66745 N.2 0 **** -0.374
243 N3 38.4491 6.55082 3.90371 N.2 0 **** -0.374
244 N4 38.9484 7.54463 3.06617 N.2 0 **** 0.856
245 O1 39.1359 9.06568 6.53267 O.2 0 **** -0.428
246 O2 37.2217 10.0154 6.23849 O.2 0 **** -0.428
247 O3 38.9784 7.30768 1.87904 O.2 0 **** -0.428
248 O4 39.3174 8.57364 3.58881 O.2 0 **** -0.428
249 H 39.3326 6.95396 5.77239 H 0 **** 0.053
250 H 37.9858 5.84486 5.87846 H 0 **** 0.053
251 H 35.4347 8.05837 6.14956 H 0 **** 0.053
252 H 35.8495 8.64071 4.55104 H 0 **** 0.053
253 C1 22.5912 11.2296 3.2879 C.3 0 **** 0.268
254 C2 24.8562 10.1487 3.36997 C.3 0 **** 0.268
255 N1 22.9444 8.91164 2.46344 N.2 0 **** 0.856
256 N2 23.461 10.0993 2.97516 N.2 0 **** -0.374
257 N3 22.4737 11.4319 4.7389 N.2 0 **** -0.374
258 N4 21.9744 10.438 5.57645 N.2 0 **** 0.856
259 O1 21.7869 8.917 2.10995 O.2 0 **** -0.428
260 O2 23.7011 7.9673 2.40412 O.2 0 **** -0.428
261 O3 21.9444 10.675 6.76357 O.2 0 **** -0.428
262 O4 21.6053 9.40904 5.0538 O.2 0 **** -0.428
263 H 21.5902 11.0287 2.87022 H 0 **** 0.053
264 H 22.937 12.1378 2.76416 H 0 **** 0.053
265 H 25.4881 9.92431 2.49306 H 0 **** 0.053
266 H 25.0733 9.34197 4.09157 H 0 **** 0.053
267 C1 25.1499 11.6557 5.35471 C.3 0 **** 0.268
268 C2 22.8849 12.7366 5.27264 C.3 0 **** 0.268
269 N1 24.7968 13.9737 6.17917 N.2 0 **** 0.856
270 N2 24.2801 12.786 5.66745 N.2 0 **** -0.374
271 N3 25.2675 11.4535 3.90371 N.2 0 **** -0.374
272 N4 25.7667 12.4473 3.06617 N.2 0 **** 0.856
273 O1 25.9542 13.9684 6.53267 O.2 0 **** -0.428
274 O2 24.04 14.9181 6.23849 O.2 0 **** -0.428
275 O3 25.7967 12.2104 1.87904 O.2 0 **** -0.428
276 O4 26.1358 13.4763 3.58881 O.2 0 **** -0.428
277 H 26.1509 11.8566 5.77239 H 0 **** 0.053
278 H 24.8042 10.7475 5.87846 H 0 **** 0.053
279 H 22.2531 12.961 6.14956 H 0 **** 0.053
280 H 22.6678 13.5434 4.55104 H 0 **** 0.053
281 C1 26.5099 6.32697 9.31271 C.3 0 **** 0.268
282 C2 28.7748 5.24607 9.39477 C.3 0 **** 0.268
283 N1 26.863 4.00896 8.48825 N.2 0 **** 0.856
284 N2 27.3796 5.19666 8.99997 N.2 0 **** -0.374
285 N3 26.3923 6.52918 10.7637 N.2 0 **** -0.374
286 N4 25.893 5.53537 11.6013 N.2 0 **** 0.856
287 O1 25.7055 4.01432 8.13475 O.2 0 **** -0.428
288 O2 27.6197 3.06462 8.42893 O.2 0 **** -0.428
289 O3 25.863 5.77232 12.7884 O.2 0 **** -0.428
290 O4 25.5239 4.50636 11.0786 O.2 0 **** -0.428
291 H 25.5088 6.12604 8.89502 H 0 **** 0.053
292 H 26.8556 7.23514 8.78896 H 0 **** 0.053
293 H 29.4067 5.02163 8.51786 H 0 **** 0.053
294 H 28.9919 4.43929 10.1164 H 0 **** 0.053
295 C1 29.0685 6.75303 11.3795 C.3 0 **** 0.268
296 C2 26.8035 7.83393 11.2975 C.3 0 **** 0.268
297 N1 28.7154 9.07104 12.204 N.2 0 **** 0.856
298 N2 28.1987 7.88335 11.6923 N.2 0 **** -0.374
299 N3 29.1861 6.55082 9.92852 N.2 0 **** -0.374
300 N4 29.6853 7.54463 9.09097 N.2 0 **** 0.856
301 O1 29.8728 9.06568 12.5575 O.2 0 **** -0.428
302 O2 27.9586 10.0154 12.2633 O.2 0 **** -0.428
303 O3 29.7153 7.30768 7.90385 O.2 0 **** -0.428
304 O4 30.0544 8.57364 9.61362 O.2 0 **** -0.428
305 H 30.0696 6.95396 11.7972 H 0 **** 0.053
306 H 28.7228 5.84486 11.9033 H 0 **** 0.053
307 H 26.1717 8.05837 12.1744 H 0 **** 0.053
308 H 26.5864 8.64071 10.5758 H 0 **** 0.053
309 C1 9.40958 16.1323 3.2879 C.3 0 **** 0.268
310 C2 11.6745 15.0514 3.36997 C.3 0 **** 0.268
311 N1 9.76269 13.8143 2.46344 N.2 0 **** 0.856
312 N2 10.2793 15.002 2.97516 N.2 0 **** -0.374
313 N3 9.29199 16.3345 4.7389 N.2 0 **** -0.374
314 N4 8.79275 15.3407 5.57645 N.2 0 **** 0.856
315 O1 8.60523 13.8197 2.10995 O.2 0 **** -0.428
316 O2 10.5194 12.87 2.40412 O.2 0 **** -0.428
317 O3 8.76277 15.5777 6.76357 O.2 0 **** -0.428
318 O4 8.42368 14.3117 5.0538 O.2 0 **** -0.428
319 H 8.40852 15.9314 2.87022 H 0 **** 0.053
320 H 9.75529 17.0405 2.76416 H 0 **** 0.053
321 H 12.3064 14.827 2.49306 H 0 **** 0.053
322 H 11.8916 14.2446 4.09157 H 0 **** 0.053
323 C1 11.9682 16.5584 5.35471 C.3 0 **** 0.268
324 C2 9.70327 17.6393 5.27264 C.3 0 **** 0.268
325 N1 11.6151 18.8764 6.17917 N.2 0 **** 0.856
326 N2 11.0985 17.6887 5.66745 N.2 0 **** -0.374
327 N3 12.0858 16.3562 3.90371 N.2 0 **** -0.374
328 N4 12.585 17.35 3.06617 N.2 0 **** 0.856
329 O1 12.7726 18.871 6.53267 O.2 0 **** -0.428
330 O2 10.8584 19.8207 6.23849 O.2 0 **** -0.428
331 O3 12.615 17.113 1.87904 O.2 0 **** -0.428
332 O4 12.9541 18.379 3.58881 O.2 0 **** -0.428
333 H 12.9693 16.7593 5.77239 H 0 **** 0.053
334 H 11.6225 15.6502 5.87846 H 0 **** 0.053
335 H 9.07139 17.8637 6.14956 H 0 **** 0.053
336 H 9.48617 18.4461 4.55104 H 0 **** 0.053
337 C1 13.3282 11.2296 9.31271 C.3 0 **** 0.268
338 C2 15.5931 10.1487 9.39477 C.3 0 **** 0.268
339 N1 13.6813 8.91164 8.48825 N.2 0 **** 0.856
340 N2 14.198 10.0993 8.99997 N.2 0 **** -0.374
341 N3 13.2106 11.4319 10.7637 N.2 0 **** -0.374
342 N4 12.7114 10.438 11.6013 N.2 0 **** 0.856
343 O1 12.5238 8.917 8.13475 O.2 0 **** -0.428
344 O2 14.438 7.9673 8.42893 O.2 0 **** -0.428
345 O3 12.6814 10.675 12.7884 O.2 0 **** -0.428
346 O4 12.3423 9.40904 11.0786 O.2 0 **** -0.428
347 H 12.3271 11.0287 8.89502 H 0 **** 0.053
348 H 13.6739 12.1378 8.78896 H 0 **** 0.053
349 H 16.225 9.92431 8.51786 H 0 **** 0.053
350 H 15.8102 9.34197 10.1164 H 0 **** 0.053
351 C1 15.8868 11.6557 11.3795 C.3 0 **** 0.268
352 C2 13.6219 12.7366 11.2975 C.3 0 **** 0.268
353 N1 15.5337 13.9737 12.204 N.2 0 **** 0.856
354 N2 15.0171 12.786 11.6923 N.2 0 **** -0.374
355 N3 16.0044 11.4535 9.92852 N.2 0 **** -0.374
356 N4 16.5037 12.4473 9.09097 N.2 0 **** 0.856
357 O1 16.6912 13.9684 12.5575 O.2 0 **** -0.428
358 O2 14.777 14.9181 12.2633 O.2 0 **** -0.428
359 O3 16.5336 12.2104 7.90385 O.2 0 **** -0.428
360 O4 16.8727 13.4763 9.61362 O.2 0 **** -0.428
361 H 16.8879 11.8566 11.7972 H 0 **** 0.053
362 H 15.5411 10.7475 11.9033 H 0 **** 0.053
363 H 12.99 12.961 12.1744 H 0 **** 0.053
364 H 13.4048 13.5434 10.5758 H 0 **** 0.053
365 C1 17.2468 6.32697 15.3375 C.3 0 **** 0.268
366 C2 19.5117 5.24607 15.4196 C.3 0 **** 0.268
367 N1 17.5999 4.00896 14.5131 N.2 0 **** 0.856
368 N2 18.1166 5.19666 15.0248 N.2 0 **** -0.374
369 N3 17.1292 6.52918 16.7885 N.2 0 **** -0.374
370 N4 16.63 5.53537 17.6261 N.2 0 **** 0.856
371 O1 16.4424 4.01432 14.1596 O.2 0 **** -0.428
372 O2 18.3566 3.06462 14.4537 O.2 0 **** -0.428
373 O3 16.6 5.77232 18.8132 O.2 0 **** -0.428
374 O4 16.2609 4.50636 17.1034 O.2 0 **** -0.428
375 H 16.2457 6.12604 14.9198 H 0 **** 0.053
376 H 17.5925 7.23514 14.8138 H 0 **** 0.053
377 H 20.1436 5.02163 14.5427 H 0 **** 0.053
378 H 19.7288 4.43929 16.1412 H 0 **** 0.053
379 C1 19.8054 6.75303 17.4043 C.3 0 **** 0.268
380 C2 17.5405 7.83393 17.3223 C.3 0 **** 0.268
381 N1 19.4523 9.07104 18.2288 N.2 0 **** 0.856
382 N2 18.9357 7.88335 17.7171 N.2 0 **** -0.374
383 N3 19.923 6.55082 15.9533 N.2 0 **** -0.374
384 N4 20.4223 7.54463 15.1158 N.2 0 **** 0.856
385 O1 20.6098 9.06568 18.5823 O.2 0 **** -0.428
386 O2 18.6956 10.0154 18.2881 O.2 0 **** -0.428
387 O3 20.4522 7.30768 13.9287 O.2 0 **** -0.428
388 O4 20.7913 8.57364 15.6384 O.2 0 **** -0.428
389 H 20.8065 6.95396 17.822 H 0 **** 0.053
390 H 19.4597 5.84486 17.9281 H 0 **** 0.053
391 H 16.9086 8.05837 18.1992 H 0 **** 0.053
392 H 17.3234 8.64071 16.6007 H 0 **** 0.053
393 C1 0.146524 16.1323 9.31271 C.3 0 **** 0.268
394 C2 2.41147 15.0514 9.39477 C.3 0 **** 0.268
395 N1 0.49963 13.8143 8.48825 N.2 0 **** 0.856
396 N2 1.01629 15.002 8.99997 N.2 0 **** -0.374
397 N3 0.0289297 16.3345 10.7637 N.2 0 **** -0.374
398 N4 -0.470303 15.3407 11.6013 N.2 0 **** 0.856
399 O1 -0.657826 13.8197 8.13475 O.2 0 **** -0.428
400 O2 1.25637 12.87 8.42893 O.2 0 **** -0.428
401 O3 -0.500291 15.5777 12.7884 O.2 0 **** -0.428
402 O4 -0.83938 14.3117 11.0786 O.2 0 **** -0.428
403 H -0.854539 15.9314 8.89502 H 0 **** 0.053
404 H 0.492233 17.0405 8.78896 H 0 **** 0.053
405 H 3.04335 14.827 8.51786 H 0 **** 0.053
406 H 2.62858 14.2446 10.1164 H 0 **** 0.053
407 C1 2.70516 16.5584 11.3795 C.3 0 **** 0.268
408 C2 0.440215 17.6393 11.2975 C.3 0 **** 0.268
409 N1 2.35206 18.8764 12.204 N.2 0 **** 0.856
410 N2 1.8354 17.6887 11.6923 N.2 0 **** -0.374
411 N3 2.82276 16.3562 9.92852 N.2 0 **** -0.374
412 N4 3.32199 17.35 9.09097 N.2 0 **** 0.856
413 O1 3.50951 18.871 12.5575 O.2 0 **** -0.428
414 O2 1.59532 19.8207 12.2633 O.2 0 **** -0.428
415 O3 3.35198 17.113 7.90385 O.2 0 **** -0.428
416 O4 3.69107 18.379 9.61362 O.2 0 **** -0.428
417 H 3.70622 16.7593 11.7972 H 0 **** 0.053
418 H 2.35945 15.6502 11.9033 H 0 **** 0.053
419 H -0.191663 17.8637 12.1744 H 0 **** 0.053
420 H 0.22311 18.4461 10.5758 H 0 **** 0.053
421 C1 4.06513 11.2296 15.3375 C.3 0 **** 0.268
422 C2 6.33008 10.1487 15.4196 C.3 0 **** 0.268
423 N1 4.41824 8.91164 14.5131 N.2 0 **** 0.856
424 N2 4.93489 10.0993 15.0248 N.2 0 **** -0.374
425 N3 3.94754 11.4319 16.7885 N.2 0 **** -0.374
426 N4 3.4483 10.438 17.6261 N.2 0 **** 0.856
427 O1 3.26078 8.917 14.1596 O.2 0 **** -0.428
428 O2 5.17497 7.9673 14.4537 O.2 0 **** -0.428
429 O3 3.41832 10.675 18.8132 O.2 0 **** -0.428
430 O4 3.07923 9.40904 17.1034 O.2 0 **** -0.428
431 H 3.06407 11.0287 14.9198 H 0 **** 0.053
432 H 4.41084 12.1378 14.8138 H 0 **** 0.053
433 H 6.96196 9.92431 14.5427 H 0 **** 0.053
434 H 6.54718 9.34197 16.1412 H 0 **** 0.053
435 C1 6.62377 11.6557 17.4043 C.3 0 **** 0.268
436 C2 4.35882 12.7366 17.3223 C.3 0 **** 0.268
437 N1 6.27066 13.9737 18.2288 N.2 0 **** 0.856
438 N2 5.754 12.786 17.7171 N.2 0 **** -0.374
439 N3 6.74136 11.4535 15.9533 N.2 0 **** -0.374
440 N4 7.2406 12.4473 15.1158 N.2 0 **** 0.856
441 O1 7.42812 13.9684 18.5823 O.2 0 **** -0.428
442 O2 5.51393 14.9181 18.2881 O.2 0 **** -0.428
443 O3 7.27058 12.2104 13.9287 O.2 0 **** -0.428
444 O4 7.60967 13.4763 15.6384 O.2 0 **** -0.428
445 H 7.62483 11.8566 17.822 H 0 **** 0.053
446 H 6.27806 10.7475 17.9281 H 0 **** 0.053
447 H 3.72694 12.961 18.1992 H 0 **** 0.053
448 H 4.14172 13.5434 16.6007 H 0 **** 0.053
449 C1 7.98374 6.32697 21.3623 C.3 0 **** 0.268
450 C2 10.2487 5.24607 21.4444 C.3 0 **** 0.268
451 N1 8.33684 4.00896 20.5379 N.2 0 **** 0.856
452 N2 8.8535 5.19665 21.0496 N.2 0 **** -0.374
453 N3 7.86614 6.52918 22.8133 N.2 0 **** -0.374
454 N4 7.36691 5.53537 23.6509 N.2 0 **** 0.856
455 O1 7.17939 4.01432 20.1844 O.2 0 **** -0.428
456 O2 9.09358 3.06462 20.4785 O.2 0 **** -0.428
457 O3 7.33692 5.77232 24.838 O.2 0 **** -0.428
458 O4 6.99783 4.50636 23.1282 O.2 0 **** -0.428
459 H 6.98267 6.12604 20.9446 H 0 **** 0.053
460 H 8.32945 7.23514 20.8386 H 0 **** 0.053
461 H 10.8806 5.02163 20.5675 H 0 **** 0.053
462 H 10.4658 4.43929 22.166 H 0 **** 0.053
463 C1 10.5424 6.75303 23.4291 C.3 0 **** 0.268
464 C2 8.27743 7.83393 23.3471 C.3 0 **** 0.268
465 N1 10.1893 9.07104 24.2536 N.2 0 **** 0.856
466 N2 9.67261 7.88335 23.7419 N.2 0 **** -0.374
467 N3 10.66 6.55082 21.9781 N.2 0 **** -0.374
468 N4 11.1592 7.54463 21.1406 N.2 0 **** 0.856
469 O1 11.3467 9.06568 24.6071 O.2 0 **** -0.428
470 O2 9.43253 10.0154 24.3129 O.2 0 **** -0.428
471 O3 11.1892 7.30768 19.9535 O.2 0 **** -0.428
472 O4 11.5283 8.57364 21.6632 O.2 0 **** -0.428
473 H 11.5434 6.95396 23.8468 H 0 **** 0.053
474 H 10.1967 5.84486 23.9529 H 0 **** 0.053
475 H 7.64555 8.05837 24.224 H 0 **** 0.053
476 H 8.06032 8.64071 22.6255 H 0 **** 0.053
477 C1 11.9023 1.42429 27.3871 C.3 0 **** 0.268
478 C2 14.1673 0.343393 27.4692 C.3 0 **** 0.268
479 N1 12.2555 -0.893714 26.5627 N.2 0 **** 0.856
480 N2 12.7721 0.293978 27.0744 N.2 0 **** -0.374
481 N3 11.7848 1.6265 28.8381 N.2 0 **** -0.374
482 N4 11.2855 0.632696 29.6757 N.2 0 **** 0.856
483 O1 11.098 -0.888356 26.2092 O.2 0 **** -0.428
484 O2 13.0122 -1.83805 26.5033 O.2 0 **** -0.428
485 O3 11.2555 0.869645 30.8628 O.2 0 **** -0.428
486 O4 10.9164 -0.396315 29.153 O.2 0 **** -0.428
487 H 10.9013 1.22336 26.9694 H 0 **** 0.053
488 H 12.2481 2.33247 26.8634 H 0 **** 0.053
489 H 14.7992 0.118957 26.5923 H 0 **** 0.053
490 H 14.3844 -0.463387 28.1908 H 0 **** 0.053
491 C1 14.461 1.85036 29.4539 C.3 0 **** 0.268
492 C2 12.196 2.93125 29.3719 C.3 0 **** 0.268
493 N1 14.1079 4.16836 30.2784 N.2 0 **** 0.856
494 N2 13.5912 2.98067 29.7667 N.2 0 **** -0.374
495 N3 14.5786 1.64815 28.0029 N.2 0 **** -0.374
496 N4 15.0778 2.64195 27.1654 N.2 0 **** 0.856
497 O1 15.2653 4.163 30.6319 O.2 0 **** -0.428
498 O2 13.3511 5.1127 30.3377 O.2 0 **** -0.428
499 O3 15.1078 2.405 25.9783 O.2 0 **** -0.428
500 O4 15.4469 3.67096 27.688 O.2 0 **** -0.428
501 H 15.462 2.05129 29.8716 H 0 **** 0.053
502 H 14.1153 0.942182 29.9777 H 0 **** 0.053
503 H 11.5642 3.15569 30.2488 H 0 **** 0.053
504 H 11.9789 3.73803 28.6503 H 0 **** 0.053
505 C1 -1.27932 6.32697 27.3871 C.3 0 **** 0.268
506 C2 0.985628 5.24607 27.4692 C.3 0 **** 0.268
507 N1 -0.926213 4.00896 26.5627 N.2 0 **** 0.856
508 N2 -0.409555 5.19665 27.0744 N.2 0 **** -0.374
509 N3 -1.39691 6.52918 28.8381 N.2 0 **** -0.374
510 N4 -1.89615 5.53537 29.6757 N.2 0 **** 0.856
511 O1 -2.08367 4.01432 26.2092 O.2 0 **** -0.428
512 O2 -0.169476 3.06462 26.5033 O.2 0 **** -0.428
513 O3 -1.92613 5.77232 30.8628 O.2 0 **** -0.428
514 O4 -2.26522 4.50636 29.153 O.2 0 **** -0.428
515 H -2.28038 6.12604 26.9694 H 0 **** 0.053
516 H -0.93361 7.23514 26.8634 H 0 **** 0.053
517 H 1.61751 5.02163 26.5923 H 0 **** 0.053
518 H 1.20273 4.43929 28.1908 H 0 **** 0.053
519 C1 1.27932 6.75303 29.4539 C.3 0 **** 0.268
520 C2 -0.985628 7.83393 29.3719 C.3 0 **** 0.268
521 N1 0.926213 9.07104 30.2784 N.2 0 **** 0.856
522 N2 0.409555 7.88335 29.7667 N.2 0 **** -0.374
523 N3 1.39691 6.55082 28.0029 N.2 0 **** -0.374
524 N4 1.89615 7.54463 27.1654 N.2 0 **** 0.856
525 O1 2.08367 9.06568 30.6319 O.2 0 **** -0.428
526 O2 0.169476 10.0154 30.3377 O.2 0 **** -0.428
527 O3 1.92613 7.30768 25.9783 O.2 0 **** -0.428
528 O4 2.26522 8.57364 27.688 O.2 0 **** -0.428
529 H 2.28038 6.95396 29.8716 H 0 **** 0.053
530 H 0.93361 5.84486 29.9777 H 0 **** 0.053
531 H -1.61751 8.05837 30.2488 H 0 **** 0.053
532 H -1.20273 8.64071 28.6503 H 0 **** 0.053
533 C1 48.9546 7.96429 3.2879 C.3 0 **** 0.268
534 C2 51.2195 6.88339 3.36997 C.3 0 **** 0.268
535 N1 49.3077 5.64629 2.46344 N.2 0 **** 0.856
536 N2 49.8243 6.83398 2.97516 N.2 0 **** -0.374
537 N3 48.837 8.1665 4.7389 N.2 0 **** -0.374
538 N4 48.3377 7.1727 5.57645 N.2 0 **** 0.856
539 O1 48.1502 5.65164 2.10995 O.2 0 **** -0.428
540 O2 50.0644 4.70195 2.40412 O.2 0 **** -0.428
541 O3 48.3078 7.40965 6.76357 O.2 0 **** -0.428
542 O4 47.9687 6.14369 5.0538 O.2 0 **** -0.428
543 H 47.9535 7.76336 2.87022 H 0 **** 0.053
544 H 49.3003 8.87247 2.76416 H 0 **** 0.053
545 H 51.8514 6.65896 2.49306 H 0 **** 0.053
546 H 51.4366 6.07661 4.09157 H 0 **** 0.053
547 C1 51.5132 8.39036 5.35471 C.3 0 **** 0.268
548 C2 49.2483 9.47125 5.27264 C.3 0 **** 0.268
549 N1 51.1601 10.7084 6.17917 N.2 0 **** 0.856
550 N2 50.6434 9.52067 5.66745 N.2 0 **** -0.374
551 N3 51.6308 8.18815 3.90371 N.2 0 **** -0.374
552 N4 52.13 9.18195 3.06617 N.2 0 **** 0.856
553 O1 52.3176 10.703 6.53267 O.2 0 **** -0.428
554 O2 50.4034 11.6527 6.23849 O.2 0 **** -0.428
555 O3 52.16 8.945 1.87904 O.2 0 **** -0.428
556 O4 52.4991 10.211 3.58881 O.2 0 **** -0.428
557 H 52.5143 8.59129 5.77239 H 0 **** 0.053
558 H 51.1675 7.48218 5.87846 H 0 **** 0.053
559 H 48.6164 9.69569 6.14956 H 0 **** 0.053
560 H 49.0312 10.278 4.55104 H 0 **** 0.053
561 C1 35.7729 12.867 3.2879 C.3 0 **** 0.268
562 C2 38.0379 11.7861 3.36997 C.3 0 **** 0.268
563 N1 36.126 10.549 2.46344 N.2 0 **** 0.856
564 N2 36.6427 11.7367 2.97516 N.2 0 **** -0.374
565 N3 35.6553 13.0692 4.7389 N.2 0 **** -0.374
566 N4 35.1561 12.0754 5.57645 N.2 0 **** 0.856
567 O1 34.9686 10.5543 2.10995 O.2 0 **** -0.428
568 O2 36.8828 9.60462 2.40412 O.2 0 **** -0.428
569 O3 35.1261 12.3123 6.76357 O.2 0 **** -0.428
570 O4 34.787 11.0464 5.0538 O.2 0 **** -0.428
571 H 34.7718 12.666 2.87022 H 0 **** 0.053
572 H 36.1186 13.7751 2.76416 H 0 **** 0.053
573 H 38.6697 11.5616 2.49306 H 0 **** 0.053
574 H 38.255 10.9793 4.09157 H 0 **** 0.053
575 C1 38.3315 13.293 5.35471 C.3 0 **** 0.268
576 C2 36.0666 14.3739 5.27264 C.3 0 **** 0.268
577 N1 37.9784 15.611 6.17917 N.2 0 **** 0.856
578 N2 37.4618 14.4233 5.66745 N.2 0 **** -0.374
579 N3 38.4491 13.0908 3.90371 N.2 0 **** -0.374
580 N4 38.9484 14.0846 3.06617 N.2 0 **** 0.856
581 O1 39.1359 15.6057 6.53267 O.2 0 **** -0.428
582 O2 37.2217 16.5554 6.23849 O.2 0 **** -0.428
583 O3 38.9784 13.8477 1.87904 O.2 0 **** -0.428
584 O4 39.3174 15.1136 3.58881 O.2 0 **** -0.428
585 H 39.3326 13.494 5.77239 H 0 **** 0.053
586 H 37.9858 12.3849 5.87846 H 0 **** 0.053
587 H 35.4347 14.5984 6.14956 H 0 **** 0.053
588 H 35.8495 15.1807 4.55104 H 0 **** 0.053
589 C1 39.6915 7.96429 9.31271 C.3 0 **** 0.268
590 C2 41.9565 6.88339 9.39477 C.3 0 **** 0.268
591 N1 40.0446 5.64629 8.48825 N.2 0 **** 0.856
592 N2 40.5613 6.83398 8.99997 N.2 0 **** -0.374
593 N3 39.5739 8.1665 10.7637 N.2 0 **** -0.374
594 N4 39.0747 7.1727 11.6013 N.2 0 **** 0.856
595 O1 38.8872 5.65164 8.13475 O.2 0 **** -0.428
596 O2 40.8014 4.70195 8.42893 O.2 0 **** -0.428
597 O3 39.0447 7.40965 12.7884 O.2 0 **** -0.428
598 O4 38.7056 6.14368 11.0786 O.2 0 **** -0.428
599 H 38.6905 7.76336 8.89502 H 0 **** 0.053
600 H 40.0372 8.87247 8.78896 H 0 **** 0.053
601 H 42.5883 6.65896 8.51786 H 0 **** 0.053
602 H 42.1736 6.07661 10.1164 H 0 **** 0.053
603 C1 42.2502 8.39036 11.3795 C.3 0 **** 0.268
604 C2 39.9852 9.47125 11.2975 C.3 0 **** 0.268
605 N1 41.897 10.7084 12.204 N.2 0 **** 0.856
606 N2 41.3804 9.52067 11.6923 N.2 0 **** -0.374
607 N3 42.3677 8.18815 9.92852 N.2 0 **** -0.374
608 N4 42.867 9.18195 9.09097 N.2 0 **** 0.856
609 O1 43.0545 10.703 12.5575 O.2 0 **** -0.428
610 O2 41.1403 11.6527 12.2633 O.2 0 **** -0.428
611 O3 42.897 8.945 7.90385 O.2 0 **** -0.428
612 O4 43.2361 10.211 9.61362 O.2 0 **** -0.428
613 H 43.2512 8.59129 11.7972 H 0 **** 0.053
614 H 41.9044 7.48218 11.9033 H 0 **** 0.053
615 H 39.3533 9.69569 12.1744 H 0 **** 0.053
616 H 39.7681 10.278 10.5758 H 0 **** 0.053
617 C1 22.5912 17.7696 3.2879 C.3 0 **** 0.268
618 C2 24.8562 16.6887 3.36997 C.3 0 **** 0.268
619 N1 22.9444 15.4516 2.46344 N.2 0 **** 0.856
620 N2 23.461 16.6393 2.97516 N.2 0 **** -0.374
621 N3 22.4737 17.9719 4.7389 N.2 0 **** -0.374
622 N4 21.9744 16.978 5.57645 N.2 0 **** 0.856
623 O1 21.7869 15.457 2.10995 O.2 0 **** -0.428
624 O2 23.7011 14.5073 2.40412 O.2 0 **** -0.428
625 O3 21.9444 17.215 6.76357 O.2 0 **** -0.428
626 O4 21.6053 15.949 5.0538 O.2 0 **** -0.428
627 H 21.5902 17.5687 2.87022 H 0 **** 0.053
628 H 22.937 18.6778 2.76416 H 0 **** 0.053
629 H 25.4881 16.4643 2.49306 H 0 **** 0.053
630 H 25.0733 15.882 4.09157 H 0 **** 0.053
631 C1 25.1499 18.1957 5.35471 C.3 0 **** 0.268
632 C2 22.8849 19.2766 5.27264 C.3 0 **** 0.268
633 N1 24.7968 20.5137 6.17917 N.2 0 **** 0.856
634 N2 24.2801 19.326 5.66745 N.2 0 **** -0.374
635 N3 25.2675 17.9935 3.90371 N.2 0 **** -0.374
636 N4 25.7667 18.9873 3.06617 N.2 0 **** 0.856
637 O1 25.9542 20.5084 6.53267 O.2 0 **** -0.428
638 O2 24.04 21.4581 6.23849 O.2 0 **** -0.428
639 O3 25.7967 18.7504 1.87904 O.2 0 **** -0.428
640 O4 26.1358 20.0163 3.58881 O.2 0 **** -0.428
641 H 26.1509 18.3966 5.77239 H 0 **** 0.053
642 H 24.8042 17.2875 5.87846 H 0 **** 0.053
643 H 22.2531 19.501 6.14956 H 0 **** 0.053
644 H 22.6678 20.0834 4.55104 H 0 **** 0.053
645 C1 26.5099 12.867 9.31271 C.3 0 **** 0.268
646 C2 28.7748 11.7861 9.39477 C.3 0 **** 0.268
647 N1 26.863 10.549 8.48825 N.2 0 **** 0.856
648 N2 27.3796 11.7367 8.99997 N.2 0 **** -0.374
649 N3 26.3923 13.0692 10.7637 N.2 0 **** -0.374
650 N4 25.893 12.0754 11.6013 N.2 0 **** 0.856
651 O1 25.7055 10.5543 8.13475 O.2 0 **** -0.428
652 O2 27.6197 9.60462 8.42893 O.2 0 **** -0.428
653 O3 25.863 12.3123 12.7884 O.2 0 **** -0.428
654 O4 25.5239 11.0464 11.0786 O.2 0 **** -0.428
655 H 25.5088 12.666 8.89502 H 0 **** 0.053
656 H 26.8556 13.7751 8.78896 H 0 **** 0.053
657 H 29.4067 11.5616 8.51786 H 0 **** 0.053
658 H 28.9919 10.9793 10.1164 H 0 **** 0.053
659 C1 29.0685 13.293 11.3795 C.3 0 **** 0.268
660 C2 26.8035 14.3739 11.2975 C.3 0 **** 0.268
661 N1 28.7154 15.611 12.204 N.2 0 **** 0.856
662 N2 28.1987 14.4233 11.6923 N.2 0 **** -0.374
663 N3 29.1861 13.0908 9.92852 N.2 0 **** -0.374
664 N4 29.6853 14.0846 9.09097 N.2 0 **** 0.856
665 O1 29.8728 15.6057 12.5575 O.2 0 **** -0.428
666 O2 27.9586 16.5554 12.2633 O.2 0 **** -0.428
667 O3 29.7153 13.8477 7.90385 O.2 0 **** -0.428
668 O4 30.0544 15.1136 9.61362 O.2 0 **** -0.428
669 H 30.0696 13.494 11.7972 H 0 **** 0.053
670 H 28.7228 12.3849 11.9033 H 0 **** 0.053
671 H 26.1717 14.5984 12.1744 H 0 **** 0.053
672 H 26.5864 15.1807 10.5758 H 0 **** 0.053
673 C1 30.4285 7.96429 15.3375 C.3 0 **** 0.268
674 C2 32.6934 6.88339 15.4196 C.3 0 **** 0.268
675 N1 30.7816 5.64629 14.5131 N.2 0 **** 0.856
676 N2 31.2982 6.83398 15.0248 N.2 0 **** -0.374
677 N3 30.3109 8.1665 16.7885 N.2 0 **** -0.374
678 N4 29.8116 7.1727 17.6261 N.2 0 **** 0.856
679 O1 29.6241 5.65164 14.1596 O.2 0 **** -0.428
680 O2 31.5383 4.70195 14.4537 O.2 0 **** -0.428
681 O3 29.7816 7.40965 18.8132 O.2 0 **** -0.428
682 O4 29.4426 6.14368 17.1034 O.2 0 **** -0.428
683 H 29.4274 7.76336 14.9198 H 0 **** 0.053
684 H 30.7742 8.87247 14.8138 H 0 **** 0.053
685 H 33.3253 6.65896 14.5427 H 0 **** 0.053
686 H 32.9105 6.07661 16.1412 H 0 **** 0.053
687 C1 32.9871 8.39036 17.4043 C.3 0 **** 0.268
688 C2 30.7221 9.47125 17.3223 C.3 0 **** 0.268
689 N1 32.634 10.7084 18.2288 N.2 0 **** 0.856
690 N2 32.1173 9.52067 17.7171 N.2 0 **** -0.374
691 N3 33.1047 8.18815 15.9533 N.2 0 **** -0.374
692 N4 33.6039 9.18195 15.1158 N.2 0 **** 0.856
693 O1 33.7914 10.703 18.5823 O.2 0 **** -0.428
694 O2 31.8773 11.6527 18.2881 O.2 0 **** -0.428
695 O3 33.6339 8.945 13.9287 O.2 0 **** -0.428
696 O4 33.973 10.211 15.6384 O.2 0 **** -0.428
697 H 33.9882 8.59129 17.822 H 0 **** 0.053
698 H 32.6414 7.48218 17.9281 H 0 **** 0.053
699 H 30.0903 9.69569 18.1992 H 0 **** 0.053
700 H 30.505 10.278 16.6007 H 0 **** 0.053
701 C1 9.40958 22.6723 3.2879 C.3 0 **** 0.268
702 C2 11.6745 21.5914 3.36997 C.3 0 **** 0.268
703 N1 9.76269 20.3543 2.46344 N.2 0 **** 0.856
704 N2 10.2793 21.542 2.97516 N.2 0 **** -0.374
705 N3 9.29199 22.8745 4.7389 N.2 0 **** -0.374
706 N4 8.79275 21.8807 5.57645 N.2 0 **** 0.856
707 O1 8.60523 20.3597 2.10995 O.2 0 **** -0.428
708 O2 10.5194 19.41 2.40412 O.2 0 **** -0.428
709 O3 8.76277 22.1177 6.76357 O.2 0 **** -0.428
710 O4 8.42368 20.8517 5.0538 O.2 0 **** -0.428
711 H 8.40852 22.4714 2.87022 H 0 **** 0.053
712 H 9.75529 23.5805 2.76416 H 0 **** 0.053
713 H 12.3064 21.367 2.49306 H 0 **** 0.053
714 H 11.8916 20.7846 4.09157 H 0 **** 0.053
715 C1 11.9682 23.0984 5.35471 C.3 0 **** 0.268
716 C2 9.70327 24.1793 5.27264 C.3 0 **** 0.268
717 N1 11.6151 25.4164 6.17917 N.2 0 **** 0.856
718 N2 11.0985 24.2287 5.66745 N.2 0 **** -0.374
719 N3 12.0858 22.8962 3.90371 N.2 0 **** -0.374
720 N4 12.585 23.89 3.06617 N.2 0 **** 0.856
721 O1 12.7726 25.411 6.53267 O.2 0 **** -0.428
722 O2 10.8584 26.3607 6.23849 O.2 0 **** -0.428
723 O3 12.615 23.653 1.87904 O.2 0 **** -0.428
724 O4 12.9541 24.919 3.58881 O.2 0 **** -0.428
725 H 12.9693 23.2993 5.77239 H 0 **** 0.053
726 H 11.6225 22.1902 5.87846 H 0 **** 0.053
727 H 9.07139 24.4037 6.14956 H 0 **** 0.053
728 H 9.48617 24.9861 4.55104 H 0 **** 0.053
729 C1 13.3282 17.7696 9.31271 C.3 0 **** 0.268
730 C2 15.5931 16.6887 9.39477 C.3 0 **** 0.268
731 N1 13.6813 15.4516 8.48825 N.2 0 **** 0.856
732 N2 14.198 16.6393 8.99997 N.2 0 **** -0.374
733 N3 13.2106 17.9719 10.7637 N.2 0 **** -0.374
734 N4 12.7114 16.978 11.6013 N.2 0 **** 0.856
735 O1 12.5238 15.457 8.13475 O.2 0 **** -0.428
736 O2 14.438 14.5073 8.42893 O.2 0 **** -0.428
737 O3 12.6814 17.215 12.7884 O.2 0 **** -0.428
738 O4 12.3423 15.949 11.0786 O.2 0 **** -0.428
739 H 12.3271 17.5687 8.89502 H 0 **** 0.053
740 H 13.6739 18.6778 8.78896 H 0 **** 0.053
741 H 16.225 16.4643 8.51786 H 0 **** 0.053
742 H 15.8102 15.882 10.1164 H 0 **** 0.053
743 C1 15.8868 18.1957 11.3795 C.3 0 **** 0.268
744 C2 13.6219 19.2766 11.2975 C.3 0 **** 0.268
745 N1 15.5337 20.5137 12.204 N.2 0 **** 0.856
746 N2 15.0171 19.326 11.6923 N.2 0 **** -0.374
747 N3 16.0044 17.9935 9.92852 N.2 0 **** -0.374
748 N4 16.5037 18.9873 9.09097 N.2 0 **** 0.856
749 O1 16.6912 20.5084 12.5575 O.2 0 **** -0.428
750 O2 14.777 21.4581 12.2633 O.2 0 **** -0.428
751 O3 16.5336 18.7504 7.90385 O.2 0 **** -0.428
752 O4 16.8727 20.0163 9.61362 O.2 0 **** -0.428
753 H 16.8879 18.3966 11.7972 H 0 **** 0.053
754 H 15.5411 17.2875 11.9033 H 0 **** 0.053
755 H 12.99 19.501 12.1744 H 0 **** 0.053
756 H 13.4048 20.0834 10.5758 H 0 **** 0.053
757 C1 17.2468 12.867 15.3375 C.3 0 **** 0.268
758 C2 19.5117 11.7861 15.4196 C.3 0 **** 0.268
759 N1 17.5999 10.549 14.5131 N.2 0 **** 0.856
760 N2 18.1166 11.7367 15.0248 N.2 0 **** -0.374
761 N3 17.1292 13.0692 16.7885 N.2 0 **** -0.374
762 N4 16.63 12.0754 17.6261 N.2 0 **** 0.856
763 O1 16.4424 10.5543 14.1596 O.2 0 **** -0.428
764 O2 18.3566 9.60462 14.4537 O.2 0 **** -0.428
765 O3 16.6 12.3123 18.8132 O.2 0 **** -0.428
766 O4 16.2609 11.0464 17.1034 O.2 0 **** -0.428
767 H 16.2457 12.666 14.9198 H 0 **** 0.053
768 H 17.5925 13.7751 14.8138 H 0 **** 0.053
769 H 20.1436 11.5616 14.5427 H 0 **** 0.053
770 H 19.7288 10.9793 16.1412 H 0 **** 0.053
771 C1 19.8054 13.293 17.4043 C.3 0 **** 0.268
772 C2 17.5405 14.3739 17.3223 C.3 0 **** 0.268
773 N1 19.4523 15.611 18.2288 N.2 0 **** 0.856
774 N2 18.9357 14.4233 17.7171 N.2 0 **** -0.374
775 N3 19.923 13.0908 15.9533 N.2 0 **** -0.374
776 N4 20.4223 14.0846 15.1158 N.2 0 **** 0.856
777 O1 20.6098 15.6057 18.5823 O.2 0 **** -0.428
778 O2 18.6956 16.5554 18.2881 O.2 0 **** -0.428
779 O3 20.4522 13.8477 13.9287 O.2 0 **** -0.428
780 O4 20.7913 15.1136 15.6384 O.2 0 **** -0.428
781 H 20.8065 13.494 17.822 H 0 **** 0.053
782 H 19.4597 12.3849 17.9281 H 0 **** 0.053
783 H 16.9086 14.5984 18.1992 H 0 **** 0.053
784 H 17.3234 15.1807 16.6007 H 0 **** 0.053
785 C1 21.1654 7.96429 21.3623 C.3 0 **** 0.268
786 C2 23.4303 6.88339 21.4444 C.3 0 **** 0.268
787 N1 21.5185 5.64629 20.5379 N.2 0 **** 0.856
788 N2 22.0352 6.83398 21.0496 N.2 0 **** -0.374
789 N3 21.0478 8.1665 22.8133 N.2 0 **** -0.374
790 N4 20.5486 7.1727 23.6509 N.2 0 **** 0.856
791 O1 20.3611 5.65164 20.1844 O.2 0 **** -0.428
792 O2 22.2752 4.70195 20.4785 O.2 0 **** -0.428
793 O3 20.5186 7.40964 24.838 O.2 0 **** -0.428
794 O4 20.1795 6.14368 23.1282 O.2 0 **** -0.428
795 H 20.1643 7.76336 20.9446 H 0 **** 0.053
796 H 21.5111 8.87247 20.8386 H 0 **** 0.053
797 H 24.0622 6.65896 20.5675 H 0 **** 0.053
798 H 23.6475 6.07661 22.166 H 0 **** 0.053
799 C1 23.724 8.39036 23.4291 C.3 0 **** 0.268
800 C2 21.4591 9.47125 23.3471 C.3 0 **** 0.268
801 N1 23.3709 10.7084 24.2536 N.2 0 **** 0.856
802 N2 22.8543 9.52067 23.7419 N.2 0 **** -0.374
803 N3 23.8416 8.18815 21.9781 N.2 0 **** -0.374
804 N4 24.3409 9.18195 21.1406 N.2 0 **** 0.856
805 O1 24.5284 10.703 24.6071 O.2 0 **** -0.428
806 O2 22.6142 11.6527 24.3129 O.2 0 **** -0.428
807 O3 24.3709 8.945 19.9535 O.2 0 **** -0.428
808 O4 24.7099 10.211 21.6632 O.2 0 **** -0.428
809 H 24.7251 8.59129 23.8468 H 0 **** 0.053
810 H 23.3783 7.48218 23.9529 H 0 **** 0.053
811 H 20.8272 9.69569 24.224 H 0 **** 0.053
812 H 21.242 10.278 22.6255 H 0 **** 0.053
813 C1 25.084 3.06161 27.3871 C.3 0 **** 0.268
814 C2 27.349 1.98072 27.4692 C.3 0 **** 0.268
815 N1 25.4371 0.74361 26.5627 N.2 0 **** 0.856
816 N2 25.9538 1.9313 27.0744 N.2 0 **** -0.374
817 N3 24.9664 3.26382 28.8381 N.2 0 **** -0.374
818 N4 24.4672 2.27002 29.6757 N.2 0 **** 0.856
819 O1 24.2797 0.748968 26.2092 O.2 0 **** -0.428
820 O2 26.1939 -0.200729 26.5033 O.2 0 **** -0.428
821 O3 24.4372 2.50697 30.8628 O.2 0 **** -0.428
822 O4 24.0981 1.24101 29.153 O.2 0 **** -0.428
823 H 24.0829 2.86069 26.9694 H 0 **** 0.053
824 H 25.4297 3.96979 26.8634 H 0 **** 0.053
825 H 27.9808 1.75628 26.5923 H 0 **** 0.053
826 H 27.5661 1.17394 28.1908 H 0 **** 0.053
827 C1 27.6426 3.48768 29.4539 C.3 0 **** 0.268
828 C2 25.3777 4.56858 29.3719 C.3 0 **** 0.268
829 N1 27.2895 5.80568 30.2784 N.2 0 **** 0.856
830 N2 26.7729 4.61799 29.7667 N.2 0 **** -0.374
831 N3 27.7602 3.28547 28.0029 N.2 0 **** -0.374
832 N4 28.2595 4.27928 27.1654 N.2 0 **** 0.856
833 O1 28.447 5.80033 30.6319 O.2 0 **** -0.428
834 O2 26.5328 6.75002 30.3377 O.2 0 **** -0.428
835 O3 28.2895 4.04233 25.9783 O.2 0 **** -0.428
836 O4 28.6286 5.30829 27.688 O.2 0 **** -0.428
837 H 28.6437 3.68861 29.8716 H 0 **** 0.053
838 H 27.2969 2.57951 29.9777 H 0 **** 0.053
839 H 24.7458 4.79301 30.2488 H 0 **** 0.053
840 H 25.1606 5.37536 28.6503 H 0 **** 0.053
841 C1 0.146524 22.6723 9.31271 C.3 0 **** 0.268
842 C2 2.41147 21.5914 9.39477 C.3 0 **** 0.268
843 N1 0.49963 20.3543 8.48825 N.2 0 **** 0.856
844 N2 1.01629 21.542 8.99997 N.2 0 **** -0.374
845 N3 0.0289297 22.8745 10.7637 N.2 0 **** -0.374
846 N4 -0.470303 21.8807 11.6013 N.2 0 **** 0.856
847 O1 -0.657826 20.3597 8.13475 O.2 0 **** -0.428
848 O2 1.25637 19.41 8.42893 O.2 0 **** -0.428
849 O3 -0.500291 22.1177 12.7884 O.2 0 **** -0.428
850 O4 -0.83938 20.8517 11.0786 O.2 0 **** -0.428
851 H -0.854539 22.4714 8.89502 H 0 **** 0.053
852 H 0.492233 23.5805 8.78896 H 0 **** 0.053
853 H 3.04335 21.367 8.51786 H 0 **** 0.053
854 H 2.62858 20.7846 10.1164 H 0 **** 0.053
855 C1 2.70516 23.0984 11.3795 C.3 0 **** 0.268
856 C2 0.440215 24.1793 11.2975 C.3 0 **** 0.268
857 N1 2.35206 25.4164 12.204 N.2 0 **** 0.856
858 N2 1.8354 24.2287 11.6923 N.2 0 **** -0.374
859 N3 2.82276 22.8962 9.92852 N.2 0 **** -0.374
860 N4 3.32199 23.89 9.09097 N.2 0 **** 0.856
861 O1 3.50951 25.411 12.5575 O.2 0 **** -0.428
862 O2 1.59532 26.3607 12.2633 O.2 0 **** -0.428
863 O3 3.35198 23.653 7.90385 O.2 0 **** -0.428
864 O4 3.69107 24.919 9.61362 O.2 0 **** -0.428
865 H 3.70622 23.2993 11.7972 H 0 **** 0.053
866 H 2.35945 22.1902 11.9033 H 0 **** 0.053
867 H -0.191663 24.4037 12.1744 H 0 **** 0.053
868 H 0.22311 24.9861 10.5758 H 0 **** 0.053
869 C1 4.06513 17.7696 15.3375 C.3 0 **** 0.268
870 C2 6.33008 16.6887 15.4196 C.3 0 **** 0.268
871 N1 4.41824 15.4516 14.5131 N.2 0 **** 0.856
872 N2 4.93489 16.6393 15.0248 N.2 0 **** -0.374
873 N3 3.94754 17.9719 16.7885 N.2 0 **** -0.374
874 N4 3.4483 16.978 17.6261 N.2 0 **** 0.856
875 O1 3.26078 15.457 14.1596 O.2 0 **** -0.428
876 O2 5.17497 14.5073 14.4537 O.2 0 **** -0.428
877 O3 3.41832 17.215 18.8132 O.2 0 **** -0.428
878 O4 3.07923 15.949 17.1034 O.2 0 **** -0.428
879 H 3.06407 17.5687 14.9198 H 0 **** 0.053
880 H 4.41084 18.6778 14.8138 H 0 **** 0.053
881 H 6.96196 16.4643 14.5427 H 0 **** 0.053
882 H 6.54718 15.882 16.1412 H 0 **** 0.053
883 C1 6.62377 18.1957 17.4043 C.3 0 **** 0.268
884 C2 4.35882 19.2766 17.3223 C.3 0 **** 0.268
885 N1 6.27066 20.5137 18.2288 N.2 0 **** 0.856
886 N2 5.754 19.326 17.7171 N.2 0 **** -0.374
887 N3 6.74136 17.9935 15.9533 N.2 0 **** -0.374
888 N4 7.2406 18.9873 15.1158 N.2 0 **** 0.856
889 O1 7.42812 20.5084 18.5823 O.2 0 **** -0.428
890 O2 5.51393 21.4581 18.2881 O.2 0 **** -0.428
891 O3 7.27058 18.7504 13.9287 O.2 0 **** -0.428
892 O4 7.60967 20.0163 15.6384 O.2 0 **** -0.428
893 H 7.62483 18.3966 17.822 H 0 **** 0.053
894 H 6.27806 17.2875 17.9281 H 0 **** 0.053
895 H 3.72694 19.501 18.1992 H 0 **** 0.053
896 H 4.14172 20.0834 16.6007 H 0 **** 0.053
897 C1 7.98374 12.867 21.3623 C.3 0 **** 0.268
898 C2 10.2487 11.7861 21.4444 C.3 0 **** 0.268
899 N1 8.33684 10.549 20.5379 N.2 0 **** 0.856
900 N2 8.8535 11.7367 21.0496 N.2 0 **** -0.374
901 N3 7.86614 13.0692 22.8133 N.2 0 **** -0.374
902 N4 7.36691 12.0754 23.6509 N.2 0 **** 0.856
903 O1 7.17939 10.5543 20.1844 O.2 0 **** -0.428
904 O2 9.09358 9.60462 20.4785 O.2 0 **** -0.428
905 O3 7.33692 12.3123 24.838 O.2 0 **** -0.428
906 O4 6.99783 11.0464 23.1282 O.2 0 **** -0.428
907 H 6.98267 12.666 20.9446 H 0 **** 0.053
908 H 8.32945 13.7751 20.8386 H 0 **** 0.053
909 H 10.8806 11.5616 20.5675 H 0 **** 0.053
910 H 10.4658 10.9793 22.166 H 0 **** 0.053
911 C1 10.5424 13.293 23.4291 C.3 0 **** 0.268
912 C2 8.27743 14.3739 23.3471 C.3 0 **** 0.268
913 N1 10.1893 15.611 24.2536 N.2 0 **** 0.856
914 N2 9.67261 14.4233 23.7419 N.2 0 **** -0.374
915 N3 10.66 13.0908 21.9781 N.2 0 **** -0.374
916 N4 11.1592 14.0846 21.1406 N.2 0 **** 0.856
917 O1 11.3467 15.6057 24.6071 O.2 0 **** -0.428
918 O2 9.43253 16.5554 24.3129 O.2 0 **** -0.428
919 O3 11.1892 13.8477 19.9535 O.2 0 **** -0.428
920 O4 11.5283 15.1136 21.6632 O.2 0 **** -0.428
921 H 11.5434 13.494 23.8468 H 0 **** 0.053
922 H 10.1967 12.3849 23.9529 H 0 **** 0.053
923 H 7.64555 14.5984 24.224 H 0 **** 0.053
924 H 8.06032 15.1807 22.6255 H 0 **** 0.053
925 C1 11.9023 7.96429 27.3871 C.3 0 **** 0.268
926 C2 14.1673 6.88339 27.4692 C.3 0 **** 0.268
927 N1 12.2555 5.64629 26.5627 N.2 0 **** 0.856
928 N2 12.7721 6.83398 27.0744 N.2 0 **** -0.374
929 N3 11.7848 8.1665 28.8381 N.2 0 **** -0.374
930 N4 11.2855 7.1727 29.6757 N.2 0 **** 0.856
931 O1 11.098 5.65164 26.2092 O.2 0 **** -0.428
932 O2 13.0122 4.70195 26.5033 O.2 0 **** -0.428
933 O3 11.2555 7.40964 30.8628 O.2 0 **** -0.428
934 O4 10.9164 6.14368 29.153 O.2 0 **** -0.428
935 H 10.9013 7.76336 26.9694 H 0 **** 0.053
936 H 12.2481 8.87247 26.8634 H 0 **** 0.053
937 H 14.7992 6.65896 26.5923 H 0 **** 0.053
938 H 14.3844 6.07661 28.1908 H 0 **** 0.053
939 C1 14.461 8.39036 29.4539 C.3 0 **** 0.268
940 C2 12.196 9.47125 29.3719 C.3 0 **** 0.268
941 N1 14.1079 10.7084 30.2784 N.2 0 **** 0.856
942 N2 13.5912 9.52067 29.7667 N.2 0 **** -0.374
943 N3 14.5786 8.18815 28.0029 N.2 0 **** -0.374
944 N4 15.0778 9.18195 27.1654 N.2 0 **** 0.856
945 O1 15.2653 10.703 30.6319 O.2 0 **** -0.428
946 O2 13.3511 11.6527 30.3377 O.2 0 **** -0.428
947 O3 15.1078 8.945 25.9783 O.2 0 **** -0.428
948 O4 15.4469 10.211 27.688 O.2 0 **** -0.428
949 H 15.462 8.59129 29.8716 H 0 **** 0.053
950 H 14.1153 7.48218 29.9777 H 0 **** 0.053
951 H 11.5642 9.69569 30.2488 H 0 **** 0.053
952 H 11.9789 10.278 28.6503 H 0 **** 0.053
953 C1 -1.27932 12.867 27.3871 C.3 0 **** 0.268
954 C2 0.985628 11.7861 27.4692 C.3 0 **** 0.268
955 N1 -0.926213 10.549 26.5627 N.2 0 **** 0.856
956 N2 -0.409555 11.7367 27.0744 N.2 0 **** -0.374
957 N3 -1.39691 13.0692 28.8381 N.2 0 **** -0.374
958 N4 -1.89615 12.0754 29.6757 N.2 0 **** 0.856
959 O1 -2.08367 10.5543 26.2092 O.2 0 **** -0.428
960 O2 -0.169476 9.60462 26.5033 O.2 0 **** -0.428
961 O3 -1.92613 12.3123 30.8628 O.2 0 **** -0.428
962 O4 -2.26522 11.0464 29.153 O.2 0 **** -0.428
963 H -2.28038 12.666 26.9694 H 0 **** 0.053
964 H -0.93361 13.7751 26.8634 H 0 **** 0.053
965 H 1.61751 11.5616 26.5923 H 0 **** 0.053
966 H 1.20273 10.9793 28.1908 H 0 **** 0.053
967 C1 1.27932 13.293 29.4539 C.3 0 **** 0.268
968 C2 -0.985628 14.3739 29.3719 C.3 0 **** 0.268
969 N1 0.926213 15.611 30.2784 N.2 0 **** 0.856
970 N2 0.409555 14.4233 29.7667 N.2 0 **** -0.374
971 N3 1.39691 13.0908 28.0029 N.2 0 **** -0.374
972 N4 1.89615 14.0846 27.1654 N.2 0 **** 0.856
973 O1 2.08367 15.6057 30.6319 O.2 0 **** -0.428
974 O2 0.169476 16.5554 30.3377 O.2 0 **** -0.428
975 O3 1.92613 13.8477 25.9783 O.2 0 **** -0.428
976 O4 2.26522 15.1136 27.688 O.2 0 **** -0.428
977 H 2.28038 13.494 29.8716 H 0 **** 0.053
978 H 0.93361 12.3849 29.9777 H 0 **** 0.053
979 H -1.61751 14.5984 30.2488 H 0 **** 0.053
980 H -1.20273 15.1807 28.6503 H 0 **** 0.053
981 C1 62.1362 9.60161 3.2879 C.3 0 **** 0.268
982 C2 64.4012 8.52072 3.36997 C.3 0 **** 0.268
983 N1 62.4893 7.28361 2.46344 N.2 0 **** 0.856
984 N2 63.006 8.4713 2.97516 N.2 0 **** -0.374
985 N3 62.0186 9.80382 4.7389 N.2 0 **** -0.374
986 N4 61.5194 8.81002 5.57645 N.2 0 **** 0.856
987 O1 61.3319 7.28897 2.10995 O.2 0 **** -0.428
988 O2 63.2461 6.33927 2.40412 O.2 0 **** -0.428
989 O3 61.4894 9.04697 6.76357 O.2 0 **** -0.428
990 O4 61.1503 7.78101 5.0538 O.2 0 **** -0.428
991 H 61.1352 9.40069 2.87022 H 0 **** 0.053
992 H 62.4819 10.5098 2.76416 H 0 **** 0.053
993 H 65.0331 8.29628 2.49306 H 0 **** 0.053
994 H 64.6183 7.71394 4.09157 H 0 **** 0.053
995 C1 64.6949 10.0277 5.35471 C.3 0 **** 0.268
996 C2 62.4299 11.1086 5.27264 C.3 0 **** 0.268
997 N1 64.3418 12.3457 6.17917 N.2 0 **** 0.856
998 N2 63.8251 11.158 5.66745 N.2 0 **** -0.374
999 N3 64.8125 9.82547 3.90371 N.2 0 **** -0.374
1000 N4 65.3117 10.8193 3.06617 N.2 0 **** 0.856
1001 O1 65.4992 12.3403 6.53267 O.2 0 **** -0.428
1002 O2 63.585 13.29 6.23849 O.2 0 **** -0.428
1003 O3 65.3417 10.5823 1.87904 O.2 0 **** -0.428
1004 O4 65.6808 11.8483 3.58881 O.2 0 **** -0.428
1005 H 65.6959 10.2286 5.77239 H 0 **** 0.053
1006 H 64.3492 9.11951 5.87846 H 0 **** 0.053
1007 H 61.798 11.333 6.14956 H 0 **** 0.053
1008 H 62.2128 11.9154 4.55104 H 0 **** 0.053
1009 C1 48.9546 14.5043 3.2879 C.3 0 **** 0.268
1010 C2 51.2195 13.4234 3.36997 C.3 0 **** 0.268
1011 N1 49.3077 12.1863 2.46344 N.2 0 **** 0.856
1012 N2 49.8243 13.374 2.97516 N.2 0 **** -0.374
1013 N3 48.837 14.7065 4.7389 N.2 0 **** -0.374
1014 N4 48.3377 13.7127 5.57645 N.2 0 **** 0.856
1015 O1 48.1502 12.1916 2.10995 O.2 0 **** -0.428
1016 O2 50.0644 11.2419 2.40412 O.2 0 **** -0.428
1017 O3 48.3078 13.9496 6.76357 O.2 0 **** -0.428
1018 O4 47.9687 12.6837 5.0538 O.2 0 **** -0.428
1019 H 47.9535 14.3034 2.87022 H 0 **** 0.053
1020 H 49.3003 15.4125 2.76416 H 0 **** 0.053
1021 H 51.8514 13.199 2.49306 H 0 **** 0.053
1022 H 51.4366 12.6166 4.09157 H 0 **** 0.053
1023 C1 51.5132 14.9304 5.35471 C.3 0 **** 0.268
1024 C2 49.2483 16.0113 5.27264 C.3 0 **** 0.268
1025 N1 51.1601 17.2484 6.17917 N.2 0 **** 0.856
1026 N2 50.6434 16.0607 5.66745 N.2 0 **** -0.374
1027 N3 51.6308 14.7281 3.90371 N.2 0 **** -0.374
1028 N4 52.13 15.722 3.06617 N.2 0 **** 0.856
1029 O1 52.3176 17.243 6.53267 O.2 0 **** -0.428
1030 O2 50.4034 18.1927 6.23849 O.2 0 **** -0.428
1031 O3 52.16 15.485 1.87904 O.2 0 **** -0.428
1032 O4 52.4991 16.751 3.58881 O.2 0 **** -0.428
1033 H 52.5143 15.1313 5.77239 H 0 **** 0.053
1034 H 51.1675 14.0222 5.87846 H 0 **** 0.053
1035 H 48.6164 16.2357 6.14956 H 0 **** 0.053
1036 H 49.0312 16.818 4.55104 H 0 **** 0.053
1037 C1 52.8732 9.60161 9.31271 C.3 0 **** 0.268
1038 C2 55.1381 8.52072 9.39477 C.3 0 **** 0.268
1039 N1 53.2263 7.28361 8.48825 N.2 0 **** 0.856
1040 N2 53.7429 8.4713 8.99997 N.2 0 **** -0.374
1041 N3 52.7556 9.80382 10.7637 N.2 0 **** -0.374
1042 N4 52.2564 8.81002 11.6013 N.2 0 **** 0.856
1043 O1 52.0688 7.28897 8.13475 O.2 0 **** -0.428
1044 O2 53.983 6.33927 8.42893 O.2 0 **** -0.428
1045 O3 52.2264 9.04697 12.7884 O.2 0 **** -0.428
1046 O4 51.8873 7.78101 11.0786 O.2 0 **** -0.428
1047 H 51.8721 9.40069 8.89502 H 0 **** 0.053
1048 H 53.2189 10.5098 8.78896 H 0 **** 0.053
1049 H 55.77 8.29628 8.51786 H 0 **** 0.053
1050 H 55.3552 7.71394 10.1164 H 0 **** 0.053
1051 C1 55.4318 10.0277 11.3795 C.3 0 **** 0.268
1052 C2 53.1669 11.1086 11.2975 C.3 0 **** 0.268
1053 N1 55.0787 12.3457 12.204 N.2 0 **** 0.856
1054 N2 54.5621 11.158 11.6923 N.2 0 **** -0.374
1055 N3 55.5494 9.82547 9.92852 N.2 0 **** -0.374
1056 N4 56.0486 10.8193 9.09097 N.2 0 **** 0.856
1057 O1 56.2362 12.3403 12.5575 O.2 0 **** -0.428
1058 O2 54.322 13.29 12.2633 O.2 0 **** -0.428
1059 O3 56.0786 10.5823 7.90385 O.2 0 **** -0.428
1060 O4 56.4177 11.8483 9.61362 O.2 0 **** -0.428
1061 H 56.4329 10.2286 11.7972 H 0 **** 0.053
1062 H 55.0861 9.11951 11.9033 H 0 **** 0.053
1063 H 52.535 11.333 12.1744 H 0 **** 0.053
1064 H 52.9498 11.9154 10.5758 H 0 **** 0.053
1065 C1 35.7729 19.407 3.2879 C.3 0 **** 0.268
1066 C2 38.0379 18.3261 3.36997 C.3 0 **** 0.268
1067 N1 36.126 17.089 2.46344 N.2 0 **** 0.856
1068 N2 36.6427 18.2767 2.97516 N.2 0 **** -0.374
1069 N3 35.6553 19.6092 4.7389 N.2 0 **** -0.374
1070 N4 35.1561 18.6154 5.57645 N.2 0 **** 0.856
1071 O1 34.9686 17.0943 2.10995 O.2 0 **** -0.428
1072 O2 36.8828 16.1446 2.40412 O.2 0 **** -0.428
1073 O3 35.1261 18.8523 6.76357 O.2 0 **** -0.428
1074 O4 34.787 17.5864 5.0538 O.2 0 **** -0.428
1075 H 34.7718 19.206 2.87022 H 0 **** 0.053
1076 H 36.1186 20.3151 2.76416 H 0 **** 0.053
1077 H 38.6697 18.1016 2.49306 H 0 **** 0.053
1078 H 38.255 17.5193 4.09157 H 0 **** 0.053
1079 C1 38.3315 19.833 5.35471 C.3 0 **** 0.268
1080 C2 36.0666 20.9139 5.27264 C.3 0 **** 0.268
1081 N1 37.9784 22.151 6.17917 N.2 0 **** 0.856
1082 N2 37.4618 20.9633 5.66745 N.2 0 **** -0.374
1083 N3 38.4491 19.6308 3.90371 N.2 0 **** -0.374
1084 N4 38.9484 20.6246 3.06617 N.2 0 **** 0.856
1085 O1 39.1359 22.1457 6.53267 O.2 0 **** -0.428
1086 O2 37.2217 23.0954 6.23849 O.2 0 **** -0.428
1087 O3 38.9784 20.3877 1.87904 O.2 0 **** -0.428
1088 O4 39.3174 21.6536 3.58881 O.2 0 **** -0.428
1089 H 39.3326 20.034 5.77239 H 0 **** 0.053
1090 H 37.9858 18.9249 5.87846 H 0 **** 0.053
1091 H 35.4347 21.1384 6.14956 H 0 **** 0.053
1092 H 35.8495 21.7207 4.55104 H 0 **** 0.053
1093 C1 39.6915 14.5043 9.31271 C.3 0 **** 0.268
1094 C2 41.9565 13.4234 9.39477 C.3 0 **** 0.268
1095 N1 40.0446 12.1863 8.48825 N.2 0 **** 0.856
1096 N2 40.5613 13.374 8.99997 N.2 0 **** -0.374
1097 N3 39.5739 14.7065 10.7637 N.2 0 **** -0.374
1098 N4 39.0747 13.7127 11.6013 N.2 0 **** 0.856
1099 O1 38.8872 12.1916 8.13475 O.2 0 **** -0.428
1100 O2 40.8014 11.2419 8.42893 O.2 0 **** -0.428
1101 O3 39.0447 13.9496 12.7884 O.2 0 **** -0.428
1102 O4 38.7056 12.6837 11.0786 O.2 0 **** -0.428
1103 H 38.6905 14.3034 8.89502 H 0 **** 0.053
1104 H 40.0372 15.4125 8.78896 H 0 **** 0.053
1105 H 42.5883 13.199 8.51786 H 0 **** 0.053
1106 H 42.1736 12.6166 10.1164 H 0 **** 0.053
1107 C1 42.2502 14.9304 11.3795 C.3 0 **** 0.268
1108 C2 39.9852 16.0113 11.2975 C.3 0 **** 0.268
1109 N1 41.897 17.2484 12.204 N.2 0 **** 0.856
1110 N2 41.3804 16.0607 11.6923 N.2 0 **** -0.374
1111 N3 42.3677 14.7281 9.92852 N.2 0 **** -0.374
1112 N4 42.867 15.722 9.09097 N.2 0 **** 0.856
1113 O1 43.0545 17.243 12.5575 O.2 0 **** -0.428
1114 O2 41.1403 18.1927 12.2633 O.2 0 **** -0.428
1115 O3 42.897 15.485 7.90385 O.2 0 **** -0.428
1116 O4 43.2361 16.751 9.61362 O.2 0 **** -0.428
1117 H 43.2512 15.1313 11.7972 H 0 **** 0.053
1118 H 41.9044 14.0222 11.9033 H 0 **** 0.053
1119 H 39.3533 16.2357 12.1744 H 0 **** 0.053
1120 H 39.7681 16.818 10.5758 H 0 **** 0.053
1121 C1 43.6101 9.60161 15.3375 C.3 0 **** 0.268
1122 C2 45.8751 8.52072 15.4196 C.3 0 **** 0.268
1123 N1 43.9632 7.28361 14.5131 N.2 0 **** 0.856
1124 N2 44.4799 8.4713 15.0248 N.2 0 **** -0.374
1125 N3 43.4925 9.80382 16.7885 N.2 0 **** -0.374
1126 N4 42.9933 8.81002 17.6261 N.2 0 **** 0.856
1127 O1 42.8058 7.28897 14.1596 O.2 0 **** -0.428
1128 O2 44.72 6.33927 14.4537 O.2 0 **** -0.428
1129 O3 42.9633 9.04697 18.8132 O.2 0 **** -0.428
1130 O4 42.6242 7.78101 17.1034 O.2 0 **** -0.428
1131 H 42.6091 9.40069 14.9198 H 0 **** 0.053
1132 H 43.9558 10.5098 14.8138 H 0 **** 0.053
1133 H 46.5069 8.29628 14.5427 H 0 **** 0.053
1134 H 46.0922 7.71394 16.1412 H 0 **** 0.053
1135 C1 46.1688 10.0277 17.4043 C.3 0 **** 0.268
1136 C2 43.9038 11.1086 17.3223 C.3 0 **** 0.268
1137 N1 45.8157 12.3457 18.2288 N.2 0 **** 0.856
1138 N2 45.299 11.158 17.7171 N.2 0 **** -0.374
1139 N3 46.2864 9.82547 15.9533 N.2 0 **** -0.374
1140 N4 46.7856 10.8193 15.1158 N.2 0 **** 0.856
1141 O1 46.9731 12.3403 18.5823 O.2 0 **** -0.428
1142 O2 45.0589 13.29 18.2881 O.2 0 **** -0.428
1143 O3 46.8156 10.5823 13.9287 O.2 0 **** -0.428
1144 O4 47.1547 11.8483 15.6384 O.2 0 **** -0.428
1145 H 47.1698 10.2286 17.822 H 0 **** 0.053
1146 H 45.8231 9.11951 17.9281 H 0 **** 0.053
1147 H 43.2719 11.333 18.1992 H 0 **** 0.053
1148 H 43.6867 11.9154 16.6007 H 0 **** 0.053
1149 C1 22.5912 24.3096 3.2879 C.3 0 **** 0.268
1150 C2 24.8562 23.2287 3.36997 C.3 0 **** 0.268
1151 N1 22.9444 21.9916 2.46344 N.2 0 **** 0.856
1152 N2 23.461 23.1793 2.97516 N.2 0 **** -0.374
1153 N3 22.4737 24.5119 4.7389 N.2 0 **** -0.374
1154 N4 21.9744 23.518 5.57645 N.2 0 **** 0.856
1155 O1 21.7869 21.997 2.10995 O.2 0 **** -0.428
1156 O2 23.7011 21.0473 2.40412 O.2 0 **** -0.428
1157 O3 21.9444 23.755 6.76357 O.2 0 **** -0.428
1158 O4 21.6053 22.489 5.0538 O.2 0 **** -0.428
1159 H 21.5902 24.1087 2.87022 H 0 **** 0.053
1160 H 22.937 25.2178 2.76416 H 0 **** 0.053
1161 H 25.4881 23.0043 2.49306 H 0 **** 0.053
1162 H 25.0733 22.422 4.09157 H 0 **** 0.053
1163 C1 25.1499 24.7357 5.35471 C.3 0 **** 0.268
1164 C2 22.8849 25.8166 5.27264 C.3 0 **** 0.268
1165 N1 24.7968 27.0537 6.17917 N.2 0 **** 0.856
1166 N2 24.2801 25.866 5.66745 N.2 0 **** -0.374
1167 N3 25.2675 24.5335 3.90371 N.2 0 **** -0.374
1168 N4 25.7667 25.5273 3.06617 N.2 0 **** 0.856
1169 O1 25.9542 27.0484 6.53267 O.2 0 **** -0.428
1170 O2 24.04 27.9981 6.23849 O.2 0 **** -0.428
1171 O3 25.7967 25.2904 1.87904 O.2 0 **** -0.428
1172 O4 26.1358 26.5563 3.58881 O.2 0 **** -0.428
1173 H 26.1509 24.9366 5.77239 H 0 **** 0.053
1174 H 24.8042 23.8275 5.87846 H 0 **** 0.053
1175 H 22.2531 26.041 6.14956 H 0 **** 0.053
1176 H 22.6678 26.6234 4.55104 H 0 **** 0.053
1177 C1 26.5099 19.407 9.31271 C.3 0 **** 0.268
1178 C2 28.7748 18.3261 9.39477 C.3 0 **** 0.268
1179 N1 26.863 17.089 8.48825 N.2 0 **** 0.856
1180 N2 27.3796 18.2767 8.99997 N.2 0 **** -0.374
1181 N3 26.3923 19.6092 10.7637 N.2 0 **** -0.374
1182 N4 25.893 18.6154 11.6013 N.2 0 **** 0.856
1183 O1 25.7055 17.0943 8.13475 O.2 0 **** -0.428
1184 O2 27.6197 16.1446 8.42893 O.2 0 **** -0.428
1185 O3 25.863 18.8523 12.7884 O.2 0 **** -0.428
1186 O4 25.5239 17.5864 11.0786 O.2 0 **** -0.428
1187 H 25.5088 19.206 8.89502 H 0 **** 0.053
1188 H 26.8556 20.3151 8.78896 H 0 **** 0.053
1189 H 29.4067 18.1016 8.51786 H 0 **** 0.053
1190 H 28.9919 17.5193 10.1164 H 0 **** 0.053
1191 C1 29.0685 19.833 11.3795 C.3 0 **** 0.268
1192 C2 26.8035 20.9139 11.2975 C.3 0 **** 0.268
1193 N1 28.7154 22.151 12.204 N.2 0 **** 0.856
1194 N2 28.1987 20.9633 11.6923 N.2 0 **** -0.374
1195 N3 29.1861 19.6308 9.92852 N.2 0 **** -0.374
1196 N4 29.6853 20.6246 9.09097 N.2 0 **** 0.856
1197 O1 29.8728 22.1457 12.5575 O.2 0 **** -0.428
1198 O2 27.9586 23.0954 12.2633 O.2 0 **** -0.428
1199 O3 29.7153 20.3877 7.90385 O.2 0 **** -0.428
1200 O4 30.0544 21.6536 9.61362 O.2 0 **** -0.428
1201 H 30.0696 20.034 11.7972 H 0 **** 0.053
1202 H 28.7228 18.9249 11.9033 H 0 **** 0.053
1203 H 26.1717 21.1384 12.1744 H 0 **** 0.053
1204 H 26.5864 21.7207 10.5758 H 0 **** 0.053
1205 C1 30.4285 14.5043 15.3375 C.3 0 **** 0.268
1206 C2 32.6934 13.4234 15.4196 C.3 0 **** 0.268
1207 N1 30.7816 12.1863 14.5131 N.2 0 **** 0.856
1208 N2 31.2982 13.374 15.0248 N.2 0 **** -0.374
1209 N3 30.3109 14.7065 16.7885 N.2 0 **** -0.374
1210 N4 29.8116 13.7127 17.6261 N.2 0 **** 0.856
1211 O1 29.6241 12.1916 14.1596 O.2 0 **** -0.428
1212 O2 31.5383 11.2419 14.4537 O.2 0 **** -0.428
1213 O3 29.7816 13.9496 18.8132 O.2 0 **** -0.428
1214 O4 29.4426 12.6837 17.1034 O.2 0 **** -0.428
1215 H 29.4274 14.3034 14.9198 H 0 **** 0.053
1216 H 30.7742 15.4125 14.8138 H 0 **** 0.053
1217 H 33.3253 13.199 14.5427 H 0 **** 0.053
1218 H 32.9105 12.6166 16.1412 H 0 **** 0.053
1219 C1 32.9871 14.9304 17.4043 C.3 0 **** 0.268
1220 C2 30.7221 16.0113 17.3223 C.3 0 **** 0.268
1221 N1 32.634 17.2484 18.2288 N.2 0 **** 0.856
1222 N2 32.1173 16.0607 17.7171 N.2 0 **** -0.374
1223 N3 33.1047 14.7281 15.9533 N.2 0 **** -0.374
1224 N4 33.6039 15.722 15.1158 N.2 0 **** 0.856
1225 O1 33.7914 17.243 18.5823 O.2 0 **** -0.428
1226 O2 31.8773 18.1927 18.2881 O.2 0 **** -0.428
1227 O3 33.6339 15.485 13.9287 O.2 0 **** -0.428
1228 O4 33.973 16.751 15.6384 O.2 0 **** -0.428
1229 H 33.9882 15.1313 17.822 H 0 **** 0.053
1230 H 32.6414 14.0222 17.9281 H 0 **** 0.053
1231 H 30.0903 16.2357 18.1992 H 0 **** 0.053
1232 H 30.505 16.818 16.6007 H 0 **** 0.053
1233 C1 34.3471 9.60161 21.3623 C.3 0 **** 0.268
1234 C2 36.612 8.52072 21.4444 C.3 0 **** 0.268
1235 N1 34.7002 7.28361 20.5379 N.2 0 **** 0.856
1236 N2 35.2168 8.4713 21.0496 N.2 0 **** -0.374
1237 N3 34.2295 9.80382 22.8133 N.2 0 **** -0.374
1238 N4 33.7302 8.81002 23.6509 N.2 0 **** 0.856
1239 O1 33.5427 7.28897 20.1844 O.2 0 **** -0.428
1240 O2 35.4569 6.33927 20.4785 O.2 0 **** -0.428
1241 O3 33.7003 9.04697 24.838 O.2 0 **** -0.428
1242 O4 33.3612 7.78101 23.1282 O.2 0 **** -0.428
1243 H 33.346 9.40069 20.9446 H 0 **** 0.053
1244 H 34.6928 10.5098 20.8386 H 0 **** 0.053
1245 H 37.2439 8.29628 20.5675 H 0 **** 0.053
1246 H 36.8291 7.71394 22.166 H 0 **** 0.053
1247 C1 36.9057 10.0277 23.4291 C.3 0 **** 0.268
1248 C2 34.6408 11.1086 23.3471 C.3 0 **** 0.268
1249 N1 36.5526 12.3457 24.2536 N.2 0 **** 0.856
1250 N2 36.0359 11.158 23.7419 N.2 0 **** -0.374
1251 N3 37.0233 9.82547 21.9781 N.2 0 **** -0.374
1252 N4 37.5225 10.8193 21.1406 N.2 0 **** 0.856
1253 O1 37.7101 12.3403 24.6071 O.2 0 **** -0.428
1254 O2 35.7959 13.29 24.3129 O.2 0 **** -0.428
1255 O3 37.5525 10.5823 19.9535 O.2 0 **** -0.428
1256 O4 37.8916 11.8483 21.6632 O.2 0 **** -0.428
1257 H 37.9068 10.2286 23.8468 H 0 **** 0.053
1258 H 36.56 9.11951 23.9529 H 0 **** 0.053
1259 H 34.0089 11.333 24.224 H 0 **** 0.053
1260 H 34.4237 11.9154 22.6255 H 0 **** 0.053
1261 C1 38.2657 4.69894 27.3871 C.3 0 **** 0.268
1262 C2 40.5306 3.61804 27.4692 C.3 0 **** 0.268
1263 N1 38.6188 2.38093 26.5627 N.2 0 **** 0.856
1264 N2 39.1354 3.56863 27.0744 N.2 0 **** -0.374
1265 N3 38.1481 4.90115 28.8381 N.2 0 **** -0.374
1266 N4 37.6488 3.90734 29.6757 N.2 0 **** 0.856
1267 O1 37.4613 2.38629 26.2092 O.2 0 **** -0.428
1268 O2 39.3755 1.43659 26.5033 O.2 0 **** -0.428
1269 O3 37.6189 4.14429 30.8628 O.2 0 **** -0.428
1270 O4 37.2798 2.87833 29.153 O.2 0 **** -0.428
1271 H 37.2646 4.49801 26.9694 H 0 **** 0.053
1272 H 38.6114 5.60711 26.8634 H 0 **** 0.053
1273 H 41.1625 3.3936 26.5923 H 0 **** 0.053
1274 H 40.7477 2.81126 28.1908 H 0 **** 0.053
1275 C1 40.8243 5.12501 29.4539 C.3 0 **** 0.268
1276 C2 38.5594 6.2059 29.3719 C.3 0 **** 0.268
1277 N1 40.4712 7.44301 30.2784 N.2 0 **** 0.856
1278 N2 39.9545 6.25532 29.7667 N.2 0 **** -0.374
1279 N3 40.9419 4.92279 28.0029 N.2 0 **** -0.374
1280 N4 41.4411 5.9166 27.1654 N.2 0 **** 0.856
1281 O1 41.6287 7.43765 30.6319 O.2 0 **** -0.428
1282 O2 39.7145 8.38735 30.3377 O.2 0 **** -0.428
1283 O3 41.4711 5.67965 25.9783 O.2 0 **** -0.428
1284 O4 41.8102 6.94561 27.688 O.2 0 **** -0.428
1285 H 41.8254 5.32593 29.8716 H 0 **** 0.053
1286 H 40.4786 4.21683 29.9777 H 0 **** 0.053
1287 H 37.9275 6.43034 30.2488 H 0 **** 0.053
1288 H 38.3423 7.01268 28.6503 H 0 **** 0.053
1289 C1 9.40958 29.2123 3.2879 C.3 0 **** 0.268
1290 C2 11.6745 28.1314 3.36997 C.3 0 **** 0.268
1291 N1 9.76269 26.8943 2.46344 N.2 0 **** 0.856
1292 N2 10.2793 28.082 2.97516 N.2 0 **** -0.374
1293 N3 9.29199 29.4145 4.7389 N.2 0 **** -0.374
1294 N4 8.79275 28.4207 5.57645 N.2 0 **** 0.856
1295 O1 8.60523 26.8997 2.10995 O.2 0 **** -0.428
1296 O2 10.5194 25.95 2.40412 O.2 0 **** -0.428
1297 O3 8.76277 28.6577 6.76357 O.2 0 **** -0.428
1298 O4 8.42368 27.3917 5.0538 O.2 0 **** -0.428
1299 H 8.40852 29.0114 2.87022 H 0 **** 0.053
1300 H 9.75529 30.1205 2.76416 H 0 **** 0.053
1301 H 12.3064 27.907 2.49306 H 0 **** 0.053
1302 H 11.8916 27.3246 4.09157 H 0 **** 0.053
1303 C1 11.9682 29.6384 5.35471 C.3 0 **** 0.268
1304 C2 9.70327 30.7193 5.27264 C.3 0 **** 0.268
1305 N1 11.6151 31.9564 6.17917 N.2 0 **** 0.856
1306 N2 11.0985 30.7687 5.66745 N.2 0 **** -0.374
1307 N3 12.0858 29.4362 3.90371 N.2 0 **** -0.374
1308 N4 12.585 30.43 3.06617 N.2 0 **** 0.856
1309 O1 12.7726 31.951 6.53267 O.2 0 **** -0.428
1310 O2 10.8584 32.9007 6.23849 O.2 0 **** -0.428
1311 O3 12.615 30.193 1.87904 O.2 0 **** -0.428
1312 O4 12.9541 31.459 3.58881 O.2 0 **** -0.428
1313 H 12.9693 29.8393 5.77239 H 0 **** 0.053
1314 H 11.6225 28.7302 5.87846 H 0 **** 0.053
1315 H 9.07139 30.9437 6.14956 H 0 **** 0.053
1316 H 9.48617 31.5261 4.55104 H 0 **** 0.053
1317 C1 13.3282 24.3096 9.31271 C.3 0 **** 0.268
1318 C2 15.5931 23.2287 9.39477 C.3 0 **** 0.268
1319 N1 13.6813 21.9916 8.48825 N.2 0 **** 0.856
1320 N2 14.198 23.1793 8.99997 N.2 0 **** -0.374
1321 N3 13.2106 24.5119 10.7637 N.2 0 **** -0.374
1322 N4 12.7114 23.518 11.6013 N.2 0 **** 0.856
1323 O1 12.5238 21.997 8.13475 O.2 0 **** -0.428
1324 O2 14.438 21.0473 8.42893 O.2 0 **** -0.428
1325 O3 12.6814 23.755 12.7884 O.2 0 **** -0.428
1326 O4 12.3423 22.489 11.0786 O.2 0 **** -0.428
1327 H 12.3271 24.1087 8.89502 H 0 **** 0.053
1328 H 13.6739 25.2178 8.78896 H 0 **** 0.053
1329 H 16.225 23.0043 8.51786 H 0 **** 0.053
1330 H 15.8102 22.422 10.1164 H 0 **** 0.053
1331 C1 15.8868 24.7357 11.3795 C.3 0 **** 0.268
1332 C2 13.6219 25.8166 11.2975 C.3 0 **** 0.268
1333 N1 15.5337 27.0537 12.204 N.2 0 **** 0.856
1334 N2 15.0171 25.866 11.6923 N.2 0 **** -0.374
1335 N3 16.0044 24.5335 9.92852 N.2 0 **** -0.374
1336 N4 16.5037 25.5273 9.09097 N.2 0 **** 0.856
1337 O1 16.6912 27.0484 12.5575 O.2 0 **** -0.428
1338 O2 14.777 27.9981 12.2633 O.2 0 **** -0.428
1339 O3 16.5336 25.2904 7.90385 O.2 0 **** -0.428
1340 O4 16.8727 26.5563 9.61362 O.2 0 **** -0.428
1341 H 16.8879 24.9366 11.7972 H 0 **** 0.053
1342 H 15.5411 23.8275 11.9033 H 0 **** 0.053
1343 H 12.99 26.041 12.1744 H 0 **** 0.053
1344 H 13.4048 26.6234 10.5758 H 0 **** 0.053
1345 C1 17.2468 19.407 15.3375 C.3 0 **** 0.268
1346 C2 19.5117 18.3261 15.4196 C.3 0 **** 0.268
1347 N1 17.5999 17.089 14.5131 N.2 0 **** 0.856
1348 N2 18.1166 18.2767 15.0248 N.2 0 **** -0.374
1349 N3 17.1292 19.6092 16.7885 N.2 0 **** -0.374
1350 N4 16.63 18.6154 17.6261 N.2 0 **** 0.856
1351 O1 16.4424 17.0943 14.1596 O.2 0 **** -0.428
1352 O2 18.3566 16.1446 14.4537 O.2 0 **** -0.428
1353 O3 16.6 18.8523 18.8132 O.2 0 **** -0.428
1354 O4 16.2609 17.5864 17.1034 O.2 0 **** -0.428
1355 H 16.2457 19.206 14.9198 H 0 **** 0.053
1356 H 17.5925 20.3151 14.8138 H 0 **** 0.053
1357 H 20.1436 18.1016 14.5427 H 0 **** 0.053
1358 H 19.7288 17.5193 16.1412 H 0 **** 0.053
1359 C1 19.8054 19.833 17.4043 C.3 0 **** 0.268
1360 C2 17.5405 20.9139 17.3223 C.3 0 **** 0.268
1361 N1 19.4523 22.151 18.2288 N.2 0 **** 0.856
1362 N2 18.9357 20.9633 17.7171 N.2 0 **** -0.374
1363 N3 19.923 19.6308 15.9533 N.2 0 **** -0.374
1364 N4 20.4223 20.6246 15.1158 N.2 0 **** 0.856
1365 O1 20.6098 22.1457 18.5823 O.2 0 **** -0.428
1366 O2 18.6956 23.0954 18.2881 O.2 0 **** -0.428
1367 O3 20.4522 20.3877 13.9287 O.2 0 **** -0.428
1368 O4 20.7913 21.6536 15.6384 O.2 0 **** -0.428
1369 H 20.8065 20.034 17.822 H 0 **** 0.053
1370 H 19.4597 18.9249 17.9281 H 0 **** 0.053
1371 H 16.9086 21.1384 18.1992 H 0 **** 0.053
1372 H 17.3234 21.7207 16.6007 H 0 **** 0.053
1373 C1 21.1654 14.5043 21.3623 C.3 0 **** 0.268
1374 C2 23.4303 13.4234 21.4444 C.3 0 **** 0.268
1375 N1 21.5185 12.1863 20.5379 N.2 0 **** 0.856
1376 N2 22.0352 13.374 21.0496 N.2 0 **** -0.374
1377 N3 21.0478 14.7065 22.8133 N.2 0 **** -0.374
1378 N4 20.5486 13.7127 23.6509 N.2 0 **** 0.856
1379 O1 20.3611 12.1916 20.1844 O.2 0 **** -0.428
1380 O2 22.2752 11.2419 20.4785 O.2 0 **** -0.428
1381 O3 20.5186 13.9496 24.838 O.2 0 **** -0.428
1382 O4 20.1795 12.6837 23.1282 O.2 0 **** -0.428
1383 H 20.1643 14.3034 20.9446 H 0 **** 0.053
1384 H 21.5111 15.4125 20.8386 H 0 **** 0.053
1385 H 24.0622 13.199 20.5675 H 0 **** 0.053
1386 H 23.6475 12.6166 22.166 H 0 **** 0.053
1387 C1 23.724 14.9304 23.4291 C.3 0 **** 0.268
1388 C2 21.4591 16.0113 23.3471 C.3 0 **** 0.268
1389 N1 23.3709 17.2484 24.2536 N.2 0 **** 0.856
1390 N2 22.8543 16.0607 23.7419 N.2 0 **** -0.374
1391 N3 23.8416 14.7281 21.9781 N.2 0 **** -0.374
1392 N4 24.3409 15.722 21.1406 N.2 0 **** 0.856
1393 O1 24.5284 17.243 24.6071 O.2 0 **** -0.428
1394 O2 22.6142 18.1927 24.3129 O.2 0 **** -0.428
1395 O3 24.3709 15.485 19.9535 O.2 0 **** -0.428
1396 O4 24.7099 16.751 21.6632 O.2 0 **** -0.428
1397 H 24.7251 15.1313 23.8468 H 0 **** 0.053
1398 H 23.3783 14.0222 23.9529 H 0 **** 0.053
1399 H 20.8272 16.2357 24.224 H 0 **** 0.053
1400 H 21.242 16.818 22.6255 H 0 **** 0.053
1401 C1 25.084 9.60161 27.3871 C.3 0 **** 0.268
1402 C2 27.349 8.52072 27.4692 C.3 0 **** 0.268
1403 N1 25.4371 7.28361 26.5627 N.2 0 **** 0.856
1404 N2 25.9538 8.4713 27.0744 N.2 0 **** -0.374
1405 N3 24.9664 9.80382 28.8381 N.2 0 **** -0.374
1406 N4 24.4672 8.81002 29.6757 N.2 0 **** 0.856
1407 O1 24.2797 7.28897 26.2092 O.2 0 **** -0.428
1408 O2 26.1939 6.33927 26.5033 O.2 0 **** -0.428
1409 O3 24.4372 9.04697 30.8628 O.2 0 **** -0.428
1410 O4 24.0981 7.78101 29.153 O.2 0 **** -0.428
1411 H 24.0829 9.40069 26.9694 H 0 **** 0.053
1412 H 25.4297 10.5098 26.8634 H 0 **** 0.053
1413 H 27.9808 8.29628 26.5923 H 0 **** 0.053
1414 H 27.5661 7.71394 28.1908 H 0 **** 0.053
1415 C1 27.6426 10.0277 29.4539 C.3 0 **** 0.268
1416 C2 25.3777 11.1086 29.3719 C.3 0 **** 0.268
1417 N1 27.2895 12.3457 30.2784 N.2 0 **** 0.856
1418 N2 26.7729 11.158 29.7667 N.2 0 **** -0.374
1419 N3 27.7602 9.82547 28.0029 N.2 0 **** -0.374
1420 N4 28.2595 10.8193 27.1654 N.2 0 **** 0.856
1421 O1 28.447 12.3403 30.6319 O.2 0 **** -0.428
1422 O2 26.5328 13.29 30.3377 O.2 0 **** -0.428
1423 O3 28.2895 10.5823 25.9783 O.2 0 **** -0.428
1424 O4 28.6286 11.8483 27.688 O.2 0 **** -0.428
1425 H 28.6437 10.2286 29.8716 H 0 **** 0.053
1426 H 27.2969 9.11951 29.9777 H 0 **** 0.053
1427 H 24.7458 11.333 30.2488 H 0 **** 0.053
1428 H 25.1606 11.9154 28.6503 H 0 **** 0.053
1429 C1 0.146524 29.2123 9.31271 C.3 0 **** 0.268
1430 C2 2.41147 28.1314 9.39477 C.3 0 **** 0.268
1431 N1 0.49963 26.8943 8.48825 N.2 0 **** 0.856
1432 N2 1.01629 28.082 8.99997 N.2 0 **** -0.374
1433 N3 0.0289297 29.4145 10.7637 N.2 0 **** -0.374
1434 N4 -0.470303 28.4207 11.6013 N.2 0 **** 0.856
1435 O1 -0.657826 26.8997 8.13475 O.2 0 **** -0.428
1436 O2 1.25637 25.95 8.42893 O.2 0 **** -0.428
1437 O3 -0.500291 28.6577 12.7884 O.2 0 **** -0.428
1438 O4 -0.83938 27.3917 11.0786 O.2 0 **** -0.428
1439 H -0.854539 29.0114 8.89502 H 0 **** 0.053
1440 H 0.492233 30.1205 8.78896 H 0 **** 0.053
1441 H 3.04335 27.907 8.51786 H 0 **** 0.053
1442 H 2.62858 27.3246 10.1164 H 0 **** 0.053
1443 C1 2.70516 29.6384 11.3795 C.3 0 **** 0.268
1444 C2 0.440215 30.7193 11.2975 C.3 0 **** 0.268
1445 N1 2.35206 31.9564 12.204 N.2 0 **** 0.856
1446 N2 1.8354 30.7687 11.6923 N.2 0 **** -0.374
1447 N3 2.82276 29.4362 9.92852 N.2 0 **** -0.374
1448 N4 3.32199 30.43 9.09097 N.2 0 **** 0.856
1449 O1 3.50951 31.951 12.5575 O.2 0 **** -0.428
1450 O2 1.59532 32.9007 12.2633 O.2 0 **** -0.428
1451 O3 3.35198 30.193 7.90385 O.2 0 **** -0.428
1452 O4 3.69107 31.459 9.61362 O.2 0 **** -0.428
1453 H 3.70622 29.8393 11.7972 H 0 **** 0.053
1454 H 2.35945 28.7302 11.9033 H 0 **** 0.053
1455 H -0.191663 30.9437 12.1744 H 0 **** 0.053
1456 H 0.22311 31.5261 10.5758 H 0 **** 0.053
1457 C1 4.06513 24.3096 15.3375 C.3 0 **** 0.268
1458 C2 6.33008 23.2287 15.4196 C.3 0 **** 0.268
1459 N1 4.41824 21.9916 14.5131 N.2 0 **** 0.856
1460 N2 4.93489 23.1793 15.0248 N.2 0 **** -0.374
1461 N3 3.94754 24.5119 16.7885 N.2 0 **** -0.374
1462 N4 3.4483 23.518 17.6261 N.2 0 **** 0.856
1463 O1 3.26078 21.997 14.1596 O.2 0 **** -0.428
1464 O2 5.17497 21.0473 14.4537 O.2 0 **** -0.428
1465 O3 3.41832 23.755 18.8132 O.2 0 **** -0.428
1466 O4 3.07923 22.489 17.1034 O.2 0 **** -0.428
1467 H 3.06407 24.1087 14.9198 H 0 **** 0.053
1468 H 4.41084 25.2178 14.8138 H 0 **** 0.053
1469 H 6.96196 23.0043 14.5427 H 0 **** 0.053
1470 H 6.54718 22.422 16.1412 H 0 **** 0.053
1471 C1 6.62377 24.7357 17.4043 C.3 0 **** 0.268
1472 C2 4.35882 25.8166 17.3223 C.3 0 **** 0.268
1473 N1 6.27066 27.0537 18.2288 N.2 0 **** 0.856
1474 N2 5.754 25.866 17.7171 N.2 0 **** -0.374
1475 N3 6.74136 24.5335 15.9533 N.2 0 **** -0.374
1476 N4 7.2406 25.5273 15.1158 N.2 0 **** 0.856
1477 O1 7.42812 27.0484 18.5823 O.2 0 **** -0.428
1478 O2 5.51393 27.9981 18.2881 O.2 0 **** -0.428
1479 O3 7.27058 25.2904 13.9287 O.2 0 **** -0.428
1480 O4 7.60967 26.5563 15.6384 O.2 0 **** -0.428
1481 H 7.62483 24.9366 17.822 H 0 **** 0.053
1482 H 6.27806 23.8275 17.9281 H 0 **** 0.053
1483 H 3.72694 26.041 18.1992 H 0 **** 0.053
1484 H 4.14172 26.6234 16.6007 H 0 **** 0.053
1485 C1 7.98374 19.407 21.3623 C.3 0 **** 0.268
1486 C2 10.2487 18.3261 21.4444 C.3 0 **** 0.268
1487 N1 8.33684 17.089 20.5379 N.2 0 **** 0.856
1488 N2 8.8535 18.2767 21.0496 N.2 0 **** -0.374
1489 N3 7.86614 19.6092 22.8133 N.2 0 **** -0.374
1490 N4 7.36691 18.6154 23.6509 N.2 0 **** 0.856
1491 O1 7.17939 17.0943 20.1844 O.2 0 **** -0.428
1492 O2 9.09358 16.1446 20.4785 O.2 0 **** -0.428
1493 O3 7.33692 18.8523 24.838 O.2 0 **** -0.428
1494 O4 6.99783 17.5864 23.1282 O.2 0 **** -0.428
1495 H 6.98267 19.206 20.9446 H 0 **** 0.053
1496 H 8.32945 20.3151 20.8386 H 0 **** 0.053
1497 H 10.8806 18.1016 20.5675 H 0 **** 0.053
1498 H 10.4658 17.5193 22.166 H 0 **** 0.053
1499 C1 10.5424 19.833 23.4291 C.3 0 **** 0.268
1500 C2 8.27743 20.9139 23.3471 C.3 0 **** 0.268
1501 N1 10.1893 22.151 24.2536 N.2 0 **** 0.856
1502 N2 9.67261 20.9633 23.7419 N.2 0 **** -0.374
1503 N3 10.66 19.6308 21.9781 N.2 0 **** -0.374
1504 N4 11.1592 20.6246 21.1406 N.2 0 **** 0.856
1505 O1 11.3467 22.1457 24.6071 O.2 0 **** -0.428
1506 O2 9.43253 23.0954 24.3129 O.2 0 **** -0.428
1507 O3 11.1892 20.3877 19.9535 O.2 0 **** -0.428
1508 O4 11.5283 21.6536 21.6632 O.2 0 **** -0.428
1509 H 11.5434 20.034 23.8468 H 0 **** 0.053
1510 H 10.1967 18.9249 23.9529 H 0 **** 0.053
1511 H 7.64555 21.1384 24.224 H 0 **** 0.053
1512 H 8.06032 21.7207 22.6255 H 0 **** 0.053
1513 C1 11.9023 14.5043 27.3871 C.3 0 **** 0.268
1514 C2 14.1673 13.4234 27.4692 C.3 0 **** 0.268
1515 N1 12.2555 12.1863 26.5627 N.2 0 **** 0.856
1516 N2 12.7721 13.374 27.0744 N.2 0 **** -0.374
1517 N3 11.7848 14.7065 28.8381 N.2 0 **** -0.374
1518 N4 11.2855 13.7127 29.6757 N.2 0 **** 0.856
1519 O1 11.098 12.1916 26.2092 O.2 0 **** -0.428
1520 O2 13.0122 11.2419 26.5033 O.2 0 **** -0.428
1521 O3 11.2555 13.9496 30.8628 O.2 0 **** -0.428
1522 O4 10.9164 12.6837 29.153 O.2 0 **** -0.428
1523 H 10.9013 14.3034 26.9694 H 0 **** 0.053
1524 H 12.2481 15.4125 26.8634 H 0 **** 0.053
1525 H 14.7992 13.199 26.5923 H 0 **** 0.053
1526 H 14.3844 12.6166 28.1908 H 0 **** 0.053
1527 C1 14.461 14.9304 29.4539 C.3 0 **** 0.268
1528 C2 12.196 16.0113 29.3719 C.3 0 **** 0.268
1529 N1 14.1079 17.2484 30.2784 N.2 0 **** 0.856
1530 N2 13.5912 16.0607 29.7667 N.2 0 **** -0.374
1531 N3 14.5786 14.7281 28.0029 N.2 0 **** -0.374
1532 N4 15.0778 15.722 27.1654 N.2 0 **** 0.856
1533 O1 15.2653 17.243 30.6319 O.2 0 **** -0.428
1534 O2 13.3511 18.1927 30.3377 O.2 0 **** -0.428
1535 O3 15.1078 15.485 25.9783 O.2 0 **** -0.428
1536 O4 15.4469 16.751 27.688 O.2 0 **** -0.428
1537 H 15.462 15.1313 29.8716 H 0 **** 0.053
1538 H 14.1153 14.0222 29.9777 H 0 **** 0.053
1539 H 11.5642 16.2357 30.2488 H 0 **** 0.053
1540 H 11.9789 16.818 28.6503 H 0 **** 0.053
1541 C1 -1.27932 19.407 27.3871 C.3 0 **** 0.268
1542 C2 0.985628 18.3261 27.4692 C.3 0 **** 0.268
1543 N1 -0.926213 17.089 26.5627 N.2 0 **** 0.856
1544 N2 -0.409555 18.2767 27.0744 N.2 0 **** -0.374
1545 N3 -1.39691 19.6092 28.8381 N.2 0 **** -0.374
1546 N4 -1.89615 18.6154 29.6757 N.2 0 **** 0.856
1547 O1 -2.08367 17.0943 26.2092 O.2 0 **** -0.428
1548 O2 -0.169476 16.1446 26.5033 O.2 0 **** -0.428
1549 O3 -1.92613 18.8523 30.8628 O.2 0 **** -0.428
1550 O4 -2.26522 17.5864 29.153 O.2 0 **** -0.428
1551 H -2.28038 19.206 26.9694 H 0 **** 0.053
1552 H -0.93361 20.3151 26.8634 H 0 **** 0.053
1553 H 1.61751 18.1016 26.5923 H 0 **** 0.053
1554 H 1.20273 17.5193 28.1908 H 0 **** 0.053
1555 C1 1.27932 19.833 29.4539 C.3 0 **** 0.268
1556 C2 -0.985628 20.9139 29.3719 C.3 0 **** 0.268
1557 N1 0.926213 22.151 30.2784 N.2 0 **** 0.856
1558 N2 0.409555 20.9633 29.7667 N.2 0 **** -0.374
1559 N3 1.39691 19.6308 28.0029 N.2 0 **** -0.374
1560 N4 1.89615 20.6246 27.1654 N.2 0 **** 0.856
1561 O1 2.08367 22.1457 30.6319 O.2 0 **** -0.428
1562 O2 0.169476 23.0954 30.3377 O.2 0 **** -0.428
1563 O3 1.92613 20.3877 25.9783 O.2 0 **** -0.428
1564 O4 2.26522 21.6536 27.688 O.2 0 **** -0.428
1565 H 2.28038 20.034 29.8716 H 0 **** 0.053
1566 H 0.93361 18.9249 29.9777 H 0 **** 0.053
1567 H -1.61751 21.1384 30.2488 H 0 **** 0.053
1568 H -1.20273 21.7207 28.6503 H 0 **** 0.053
1569 C1 62.1362 16.1416 3.2879 C.3 0 **** 0.268
1570 C2 64.4012 15.0607 3.36997 C.3 0 **** 0.268
1571 N1 62.4893 13.8236 2.46344 N.2 0 **** 0.856
1572 N2 63.006 15.0113 2.97516 N.2 0 **** -0.374
1573 N3 62.0186 16.3438 4.7389 N.2 0 **** -0.374
1574 N4 61.5194 15.35 5.57645 N.2 0 **** 0.856
1575 O1 61.3319 13.829 2.10995 O.2 0 **** -0.428
1576 O2 63.2461 12.8793 2.40412 O.2 0 **** -0.428
1577 O3 61.4894 15.587 6.76357 O.2 0 **** -0.428
1578 O4 61.1503 14.321 5.0538 O.2 0 **** -0.428
1579 H 61.1352 15.9407 2.87022 H 0 **** 0.053
1580 H 62.4819 17.0498 2.76416 H 0 **** 0.053
1581 H 65.0331 14.8363 2.49306 H 0 **** 0.053
1582 H 64.6183 14.2539 4.09157 H 0 **** 0.053
1583 C1 64.6949 16.5677 5.35471 C.3 0 **** 0.268
1584 C2 62.4299 17.6486 5.27264 C.3 0 **** 0.268
1585 N1 64.3418 18.8857 6.17917 N.2 0 **** 0.856
1586 N2 63.8251 17.698 5.66745 N.2 0 **** -0.374
1587 N3 64.8125 16.3655 3.90371 N.2 0 **** -0.374
1588 N4 65.3117 17.3593 3.06617 N.2 0 **** 0.856
1589 O1 65.4992 18.8803 6.53267 O.2 0 **** -0.428
1590 O2 63.585 19.83 6.23849 O.2 0 **** -0.428
1591 O3 65.3417 17.1223 1.87904 O.2 0 **** -0.428
1592 O4 65.6808 18.3883 3.58881 O.2 0 **** -0.428
1593 H 65.6959 16.7686 5.77239 H 0 **** 0.053
1594 H 64.3492 15.6595 5.87846 H 0 **** 0.053
1595 H 61.798 17.873 6.14956 H 0 **** 0.053
1596 H 62.2128 18.4554 4.55104 H 0 **** 0.053
1597 C1 48.9546 21.0443 3.2879 C.3 0 **** 0.268
1598 C2 51.2195 19.9634 3.36997 C.3 0 **** 0.268
1599 N1 49.3077 18.7263 2.46344 N.2 0 **** 0.856
1600 N2 49.8243 19.914 2.97516 N.2 0 **** -0.374
1601 N3 48.837 21.2465 4.7389 N.2 0 **** -0.374
1602 N4 48.3377 20.2527 5.57645 N.2 0 **** 0.856
1603 O1 48.1502 18.7316 2.10995 O.2 0 **** -0.428
1604 O2 50.0644 17.7819 2.40412 O.2 0 **** -0.428
1605 O3 48.3078 20.4896 6.76357 O.2 0 **** -0.428
1606 O4 47.9687 19.2237 5.0538 O.2 0 **** -0.428
1607 H 47.9535 20.8434 2.87022 H 0 **** 0.053
1608 H 49.3003 21.9525 2.76416 H 0 **** 0.053
1609 H 51.8514 19.739 2.49306 H 0 **** 0.053
1610 H 51.4366 19.1566 4.09157 H 0 **** 0.053
1611 C1 51.5132 21.4704 5.35471 C.3 0 **** 0.268
1612 C2 49.2483 22.5513 5.27264 C.3 0 **** 0.268
1613 N1 51.1601 23.7884 6.17917 N.2 0 **** 0.856
1614 N2 50.6434 22.6007 5.66745 N.2 0 **** -0.374
1615 N3 51.6308 21.2681 3.90371 N.2 0 **** -0.374
1616 N4 52.13 22.262 3.06617 N.2 0 **** 0.856
1617 O1 52.3176 23.783 6.53267 O.2 0 **** -0.428
1618 O2 50.4034 24.7327 6.23849 O.2 0 **** -0.428
1619 O3 52.16 22.025 1.87904 O.2 0 **** -0.428
1620 O4 52.4991 23.291 3.58881 O.2 0 **** -0.428
1621 H 52.5143 21.6713 5.77239 H 0 **** 0.053
1622 H 51.1675 20.5622 5.87846 H 0 **** 0.053
1623 H 48.6164 22.7757 6.14956 H 0 **** 0.053
1624 H 49.0312 23.358 4.55104 H 0 **** 0.053
1625 C1 52.8732 16.1416 9.31271 C.3 0 **** 0.268
1626 C2 55.1381 15.0607 9.39477 C.3 0 **** 0.268
1627 N1 53.2263 13.8236 8.48825 N.2 0 **** 0.856
1628 N2 53.7429 15.0113 8.99997 N.2 0 **** -0.374
1629 N3 52.7556 16.3438 10.7637 N.2 0 **** -0.374
1630 N4 52.2564 15.35 11.6013 N.2 0 **** 0.856
1631 O1 52.0688 13.829 8.13475 O.2 0 **** -0.428
1632 O2 53.983 12.8793 8.42893 O.2 0 **** -0.428
1633 O3 52.2264 15.587 12.7884 O.2 0 **** -0.428
1634 O4 51.8873 14.321 11.0786 O.2 0 **** -0.428
1635 H 51.8721 15.9407 8.89502 H 0 **** 0.053
1636 H 53.2189 17.0498 8.78896 H 0 **** 0.053
1637 H 55.77 14.8363 8.51786 H 0 **** 0.053
1638 H 55.3552 14.2539 10.1164 H 0 **** 0.053
1639 C1 55.4318 16.5677 11.3795 C.3 0 **** 0.268
1640 C2 53.1669 17.6486 11.2975 C.3 0 **** 0.268
1641 N1 55.0787 18.8857 12.204 N.2 0 **** 0.856
1642 N2 54.5621 17.698 11.6923 N.2 0 **** -0.374
1643 N3 55.5494 16.3655 9.92852 N.2 0 **** -0.374
1644 N4 56.0486 17.3593 9.09097 N.2 0 **** 0.856
1645 O1 56.2362 18.8803 12.5575 O.2 0 **** -0.428
1646 O2 54.322 19.83 12.2633 O.2 0 **** -0.428
1647 O3 56.0786 17.1223 7.90385 O.2 0 **** -0.428
1648 O4 56.4177 18.3883 9.61362 O.2 0 **** -0.428
1649 H 56.4329 16.7686 11.7972 H 0 **** 0.053
1650 H 55.0861 15.6595 11.9033 H 0 **** 0.053
1651 H 52.535 17.873 12.1744 H 0 **** 0.053
1652 H 52.9498 18.4554 10.5758 H 0 **** 0.053
1653 C1 56.7918 11.2389 15.3375 C.3 0 **** 0.268
1654 C2 59.0567 10.158 15.4196 C.3 0 **** 0.268
1655 N1 57.1449 8.92093 14.5131 N.2 0 **** 0.856
1656 N2 57.6616 10.1086 15.0248 N.2 0 **** -0.374
1657 N3 56.6742 11.4411 16.7885 N.2 0 **** -0.374
1658 N4 56.175 10.4473 17.6261 N.2 0 **** 0.856
1659 O1 55.9874 8.92629 14.1596 O.2 0 **** -0.428
1660 O2 57.9016 7.97659 14.4537 O.2 0 **** -0.428
1661 O3 56.145 10.6843 18.8132 O.2 0 **** -0.428
1662 O4 55.8059 9.41833 17.1034 O.2 0 **** -0.428
1663 H 55.7907 11.038 14.9198 H 0 **** 0.053
1664 H 57.1375 12.1471 14.8138 H 0 **** 0.053
1665 H 59.6886 9.9336 14.5427 H 0 **** 0.053
1666 H 59.2738 9.35126 16.1412 H 0 **** 0.053
1667 C1 59.3504 11.665 17.4043 C.3 0 **** 0.268
1668 C2 57.0855 12.7459 17.3223 C.3 0 **** 0.268
1669 N1 58.9973 13.983 18.2288 N.2 0 **** 0.856
1670 N2 58.4807 12.7953 17.7171 N.2 0 **** -0.374
1671 N3 59.468 11.4628 15.9533 N.2 0 **** -0.374
1672 N4 59.9673 12.4566 15.1158 N.2 0 **** 0.856
1673 O1 60.1548 13.9777 18.5823 O.2 0 **** -0.428
1674 O2 58.2406 14.9273 18.2881 O.2 0 **** -0.428
1675 O3 59.9972 12.2196 13.9287 O.2 0 **** -0.428
1676 O4 60.3363 13.4856 15.6384 O.2 0 **** -0.428
1677 H 60.3515 11.8659 17.822 H 0 **** 0.053
1678 H 59.0047 10.7568 17.9281 H 0 **** 0.053
1679 H 56.4536 12.9703 18.1992 H 0 **** 0.053
1680 H 56.8684 13.5527 16.6007 H 0 **** 0.053
1681 C1 35.7729 25.947 3.2879 C.3 0 **** 0.268
1682 C2 38.0379 24.8661 3.36997 C.3 0 **** 0.268
1683 N1 36.126 23.629 2.46344 N.2 0 **** 0.856
1684 N2 36.6427 24.8167 2.97516 N.2 0 **** -0.374
1685 N3 35.6553 26.1492 4.7389 N.2 0 **** -0.374
1686 N4 35.1561 25.1554 5.57645 N.2 0 **** 0.856
1687 O1 34.9686 23.6343 2.10995 O.2 0 **** -0.428
1688 O2 36.8828 22.6846 2.40412 O.2 0 **** -0.428
1689 O3 35.1261 25.3923 6.76357 O.2 0 **** -0.428
1690 O4 34.787 24.1264 5.0538 O.2 0 **** -0.428
1691 H 34.7718 25.746 2.87022 H 0 **** 0.053
1692 H 36.1186 26.8551 2.76416 H 0 **** 0.053
1693 H 38.6697 24.6416 2.49306 H 0 **** 0.053
1694 H 38.255 24.0593 4.09157 H 0 **** 0.053
1695 C1 38.3315 26.373 5.35471 C.3 0 **** 0.268
1696 C2 36.0666 27.4539 5.27264 C.3 0 **** 0.268
1697 N1 37.9784 28.691 6.17917 N.2 0 **** 0.856
1698 N2 37.4618 27.5033 5.66745 N.2 0 **** -0.374
1699 N3 38.4491 26.1708 3.90371 N.2 0 **** -0.374
1700 N4 38.9484 27.1646 3.06617 N.2 0 **** 0.856
1701 O1 39.1359 28.6857 6.53267 O.2 0 **** -0.428
1702 O2 37.2217 29.6354 6.23849 O.2 0 **** -0.428
1703 O3 38.9784 26.9277 1.87904 O.2 0 **** -0.428
1704 O4 39.3174 28.1936 3.58881 O.2 0 **** -0.428
1705 H 39.3326 26.574 5.77239 H 0 **** 0.053
1706 H 37.9858 25.4649 5.87846 H 0 **** 0.053
1707 H 35.4347 27.6784 6.14956 H 0 **** 0.053
1708 H 35.8495 28.2607 4.55104 H 0 **** 0.053
1709 C1 39.6915 21.0443 9.31271 C.3 0 **** 0.268
1710 C2 41.9565 19.9634 9.39477 C.3 0 **** 0.268
1711 N1 40.0446 18.7263 8.48825 N.2 0 **** 0.856
1712 N2 40.5613 19.914 8.99997 N.2 0 **** -0.374
1713 N3 39.5739 21.2465 10.7637 N.2 0 **** -0.374
1714 N4 39.0747 20.2527 11.6013 N.2 0 **** 0.856
1715 O1 38.8872 18.7316 8.13475 O.2 0 **** -0.428
1716 O2 40.8014 17.7819 8.42893 O.2 0 **** -0.428
1717 O3 39.0447 20.4896 12.7884 O.2 0 **** -0.428
1718 O4 38.7056 19.2237 11.0786 O.2 0 **** -0.428
1719 H 38.6905 20.8434 8.89502 H 0 **** 0.053
1720 H 40.0372 21.9525 8.78896 H 0 **** 0.053
1721 H 42.5883 19.739 8.51786 H 0 **** 0.053
1722 H 42.1736 19.1566 10.1164 H 0 **** 0.053
1723 C1 42.2502 21.4704 11.3795 C.3 0 **** 0.268
1724 C2 39.9852 22.5513 11.2975 C.3 0 **** 0.268
1725 N1 41.897 23.7884 12.204 N.2 0 **** 0.856
1726 N2 41.3804 22.6007 11.6923 N.2 0 **** -0.374
1727 N3 42.3677 21.2681 9.92852 N.2 0 **** -0.374
1728 N4 42.867 22.262 9.09097 N.2 0 **** 0.856
1729 O1 43.0545 23.783 12.5575 O.2 0 **** -0.428
1730 O2 41.1403 24.7327 12.2633 O.2 0 **** -0.428
1731 O3 42.897 22.025 7.90385 O.2 0 **** -0.428
1732 O4 43.2361 23.291 9.61362 O.2 0 **** -0.428
1733 H 43.2512 21.6713 11.7972 H 0 **** 0.053
1734 H 41.9044 20.5622 11.9033 H 0 **** 0.053
1735 H 39.3533 22.7757 12.1744 H 0 **** 0.053
1736 H 39.7681 23.358 10.5758 H 0 **** 0.053
1737 C1 43.6101 16.1416 15.3375 C.3 0 **** 0.268
1738 C2 45.8751 15.0607 15.4196 C.3 0 **** 0.268
1739 N1 43.9632 13.8236 14.5131 N.2 0 **** 0.856
1740 N2 44.4799 15.0113 15.0248 N.2 0 **** -0.374
1741 N3 43.4925 16.3438 16.7885 N.2 0 **** -0.374
1742 N4 42.9933 15.35 17.6261 N.2 0 **** 0.856
1743 O1 42.8058 13.829 14.1596 O.2 0 **** -0.428
1744 O2 44.72 12.8793 14.4537 O.2 0 **** -0.428
1745 O3 42.9633 15.587 18.8132 O.2 0 **** -0.428
1746 O4 42.6242 14.321 17.1034 O.2 0 **** -0.428
1747 H 42.6091 15.9407 14.9198 H 0 **** 0.053
1748 H 43.9558 17.0498 14.8138 H 0 **** 0.053
1749 H 46.5069 14.8363 14.5427 H 0 **** 0.053
1750 H 46.0922 14.2539 16.1412 H 0 **** 0.053
1751 C1 46.1688 16.5677 17.4043 C.3 0 **** 0.268
1752 C2 43.9038 17.6486 17.3223 C.3 0 **** 0.268
1753 N1 45.8157 18.8857 18.2288 N.2 0 **** 0.856
1754 N2 45.299 17.698 17.7171 N.2 0 **** -0.374
1755 N3 46.2864 16.3655 15.9533 N.2 0 **** -0.374
1756 N4 46.7856 17.3593 15.1158 N.2 0 **** 0.856
1757 O1 46.9731 18.8803 18.5823 O.2 0 **** -0.428
1758 O2 45.0589 19.83 18.2881 O.2 0 **** -0.428
1759 O3 46.8156 17.1223 13.9287 O.2 0 **** -0.428
1760 O4 47.1547 18.3883 15.6384 O.2 0 **** -0.428
1761 H 47.1698 16.7686 17.822 H 0 **** 0.053
1762 H 45.8231 15.6595 17.9281 H 0 **** 0.053
1763 H 43.2719 17.873 18.1992 H 0 **** 0.053
1764 H 43.6867 18.4554 16.6007 H 0 **** 0.053
1765 C1 47.5287 11.2389 21.3623 C.3 0 **** 0.268
1766 C2 49.7937 10.158 21.4444 C.3 0 **** 0.268
1767 N1 47.8818 8.92093 20.5379 N.2 0 **** 0.856
1768 N2 48.3985 10.1086 21.0496 N.2 0 **** -0.374
1769 N3 47.4111 11.4411 22.8133 N.2 0 **** -0.374
1770 N4 46.9119 10.4473 23.6509 N.2 0 **** 0.856
1771 O1 46.7244 8.92629 20.1844 O.2 0 **** -0.428
1772 O2 48.6386 7.97659 20.4785 O.2 0 **** -0.428
1773 O3 46.8819 10.6843 24.838 O.2 0 **** -0.428
1774 O4 46.5428 9.41833 23.1282 O.2 0 **** -0.428
1775 H 46.5277 11.038 20.9446 H 0 **** 0.053
1776 H 47.8744 12.1471 20.8386 H 0 **** 0.053
1777 H 50.4256 9.9336 20.5675 H 0 **** 0.053
1778 H 50.0108 9.35126 22.166 H 0 **** 0.053
1779 C1 50.0874 11.665 23.4291 C.3 0 **** 0.268
1780 C2 47.8224 12.7459 23.3471 C.3 0 **** 0.268
1781 N1 49.7343 13.983 24.2536 N.2 0 **** 0.856
1782 N2 49.2176 12.7953 23.7419 N.2 0 **** -0.374
1783 N3 50.205 11.4628 21.9781 N.2 0 **** -0.374
1784 N4 50.7042 12.4566 21.1406 N.2 0 **** 0.856
1785 O1 50.8917 13.9777 24.6071 O.2 0 **** -0.428
1786 O2 48.9775 14.9273 24.3129 O.2 0 **** -0.428
1787 O3 50.7342 12.2196 19.9535 O.2 0 **** -0.428
1788 O4 51.0733 13.4856 21.6632 O.2 0 **** -0.428
1789 H 51.0884 11.8659 23.8468 H 0 **** 0.053
1790 H 49.7417 10.7568 23.9529 H 0 **** 0.053
1791 H 47.1905 12.9703 24.224 H 0 **** 0.053
1792 H 47.6053 13.5527 22.6255 H 0 **** 0.053
1793 C1 51.4473 6.33626 27.3871 C.3 0 **** 0.268
1794 C2 53.7123 5.25536 27.4692 C.3 0 **** 0.268
1795 N1 51.8004 4.01826 26.5627 N.2 0 **** 0.856
1796 N2 52.3171 5.20595 27.0744 N.2 0 **** -0.374
1797 N3 51.3297 6.53847 28.8381 N.2 0 **** -0.374
1798 N4 50.8305 5.54467 29.6757 N.2 0 **** 0.856
1799 O1 50.643 4.02361 26.2092 O.2 0 **** -0.428
1800 O2 52.5572 3.07392 26.5033 O.2 0 **** -0.428
1801 O3 50.8005 5.78162 30.8628 O.2 0 **** -0.428
1802 O4 50.4614 4.51566 29.153 O.2 0 **** -0.428
1803 H 50.4463 6.13533 26.9694 H 0 **** 0.053
1804 H 51.793 7.24444 26.8634 H 0 **** 0.053
1805 H 54.3442 5.03093 26.5923 H 0 **** 0.053
1806 H 53.9294 4.44858 28.1908 H 0 **** 0.053
1807 C1 54.006 6.76233 29.4539 C.3 0 **** 0.268
1808 C2 51.741 7.84322 29.3719 C.3 0 **** 0.268
1809 N1 53.6529 9.08033 30.2784 N.2 0 **** 0.856
1810 N2 53.1362 7.89264 29.7667 N.2 0 **** -0.374
1811 N3 54.1236 6.56012 28.0029 N.2 0 **** -0.374
1812 N4 54.6228 7.55392 27.1654 N.2 0 **** 0.856
1813 O1 54.8103 9.07497 30.6319 O.2 0 **** -0.428
1814 O2 52.8961 10.0247 30.3377 O.2 0 **** -0.428
1815 O3 54.6528 7.31697 25.9783 O.2 0 **** -0.428
1816 O4 54.9919 8.58293 27.688 O.2 0 **** -0.428
1817 H 55.007 6.96326 29.8716 H 0 **** 0.053
1818 H 53.6603 5.85415 29.9777 H 0 **** 0.053
1819 H 51.1091 8.06766 30.2488 H 0 **** 0.053
1820 H 51.5239 8.65 28.6503 H 0 **** 0.053
1821 C1 22.5912 30.8496 3.2879 C.3 0 **** 0.268
1822 C2 24.8562 29.7687 3.36997 C.3 0 **** 0.268
1823 N1 22.9444 28.5316 2.46344 N.2 0 **** 0.856
1824 N2 23.461 29.7193 2.97516 N.2 0 **** -0.374
1825 N3 22.4737 31.0519 4.7389 N.2 0 **** -0.374
1826 N4 21.9744 30.058 5.57645 N.2 0 **** 0.856
1827 O1 21.7869 28.537 2.10995 O.2 0 **** -0.428
1828 O2 23.7011 27.5873 2.40412 O.2 0 **** -0.428
1829 O3 21.9444 30.295 6.76357 O.2 0 **** -0.428
1830 O4 21.6053 29.029 5.0538 O.2 0 **** -0.428
1831 H 21.5902 30.6487 2.87022 H 0 **** 0.053
1832 H 22.937 31.7578 2.76416 H 0 **** 0.053
1833 H 25.4881 29.5443 2.49306 H 0 **** 0.053
1834 H 25.0733 28.962 4.09157 H 0 **** 0.053
1835 C1 25.1499 31.2757 5.35471 C.3 0 **** 0.268
1836 C2 22.8849 32.3566 5.27264 C.3 0 **** 0.268
1837 N1 24.7968 33.5937 6.17917 N.2 0 **** 0.856
1838 N2 24.2801 32.406 5.66745 N.2 0 **** -0.374
1839 N3 25.2675 31.0735 3.90371 N.2 0 **** -0.374
1840 N4 25.7667 32.0673 3.06617 N.2 0 **** 0.856
1841 O1 25.9542 33.5884 6.53267 O.2 0 **** -0.428
1842 O2 24.04 34.5381 6.23849 O.2 0 **** -0.428
1843 O3 25.7967 31.8304 1.87904 O.2 0 **** -0.428
1844 O4 26.1358 33.0963 3.58881 O.2 0 **** -0.428
1845 H 26.1509 31.4766 5.77239 H 0 **** 0.053
1846 H 24.8042 30.3675 5.87846 H 0 **** 0.053
1847 H 22.2531 32.581 6.14956 H 0 **** 0.053
1848 H 22.6678 33.1634 4.55104 H 0 **** 0.053
1849 C1 26.5099 25.947 9.31271 C.3 0 **** 0.268
1850 C2 28.7748 24.8661 9.39477 C.3 0 **** 0.268
1851 N1 26.863 23.629 8.48825 N.2 0 **** 0.856
1852 N2 27.3796 24.8167 8.99997 N.2 0 **** -0.374
1853 N3 26.3923 26.1492 10.7637 N.2 0 **** -0.374
1854 N4 25.893 25.1554 11.6013 N.2 0 **** 0.856
1855 O1 25.7055 23.6343 8.13475 O.2 0 **** -0.428
1856 O2 27.6197 22.6846 8.42893 O.2 0 **** -0.428
1857 O3 25.863 25.3923 12.7884 O.2 0 **** -0.428
1858 O4 25.5239 24.1264 11.0786 O.2 0 **** -0.428
1859 H 25.5088 25.746 8.89502 H 0 **** 0.053
1860 H 26.8556 26.8551 8.78896 H 0 **** 0.053
1861 H 29.4067 24.6416 8.51786 H 0 **** 0.053
1862 H 28.9919 24.0593 10.1164 H 0 **** 0.053
1863 C1 29.0685 26.373 11.3795 C.3 0 **** 0.268
1864 C2 26.8035 27.4539 11.2975 C.3 0 **** 0.268
1865 N1 28.7154 28.691 12.204 N.2 0 **** 0.856
1866 N2 28.1987 27.5033 11.6923 N.2 0 **** -0.374
1867 N3 29.1861 26.1708 9.92852 N.2 0 **** -0.374
1868 N4 29.6853 27.1646 9.09097 N.2 0 **** 0.856
1869 O1 29.8728 28.6857 12.5575 O.2 0 **** -0.428
1870 O2 27.9586 29.6354 12.2633 O.2 0 **** -0.428
1871 O3 29.7153 26.9277 7.90385 O.2 0 **** -0.428
1872 O4 30.0544 28.1936 9.61362 O.2 0 **** -0.428
1873 H 30.0696 26.574 11.7972 H 0 **** 0.053
1874 H 28.7228 25.4649 11.9033 H 0 **** 0.053
1875 H 26.1717 27.6784 12.1744 H 0 **** 0.053
1876 H 26.5864 28.2607 10.5758 H 0 **** 0.053
1877 C1 30.4285 21.0443 15.3375 C.3 0 **** 0.268
1878 C2 32.6934 19.9634 15.4196 C.3 0 **** 0.268
1879 N1 30.7816 18.7263 14.5131 N.2 0 **** 0.856
1880 N2 31.2982 19.914 15.0248 N.2 0 **** -0.374
1881 N3 30.3109 21.2465 16.7885 N.2 0 **** -0.374
1882 N4 29.8116 20.2527 17.6261 N.2 0 **** 0.856
1883 O1 29.6241 18.7316 14.1596 O.2 0 **** -0.428
1884 O2 31.5383 17.7819 14.4537 O.2 0 **** -0.428
1885 O3 29.7816 20.4896 18.8132 O.2 0 **** -0.428
1886 O4 29.4426 19.2237 17.1034 O.2 0 **** -0.428
1887 H 29.4274 20.8434 14.9198 H 0 **** 0.053
1888 H 30.7742 21.9525 14.8138 H 0 **** 0.053
1889 H 33.3253 19.739 14.5427 H 0 **** 0.053
1890 H 32.9105 19.1566 16.1412 H 0 **** 0.053
1891 C1 32.9871 21.4704 17.4043 C.3 0 **** 0.268
1892 C2 30.7221 22.5513 17.3223 C.3 0 **** 0.268
1893 N1 32.634 23.7884 18.2288 N.2 0 **** 0.856
1894 N2 32.1173 22.6007 17.7171 N.2 0 **** -0.374
1895 N3 33.1047 21.2681 15.9533 N.2 0 **** -0.374
1896 N4 33.6039 22.262 15.1158 N.2 0 **** 0.856
1897 O1 33.7914 23.783 18.5823 O.2 0 **** -0.428
1898 O2 31.8773 24.7327 18.2881 O.2 0 **** -0.428
1899 O3 33.6339 22.025 13.9287 O.2 0 **** -0.428
1900 O4 33.973 23.291 15.6384 O.2 0 **** -0.428
1901 H 33.9882 21.6713 17.822 H 0 **** 0.053
1902 H 32.6414 20.5622 17.9281 H 0 **** 0.053
1903 H 30.0903 22.7757 18.1992 H 0 **** 0.053
1904 H 30.505 23.358 16.6007 H 0 **** 0.053
1905 C1 34.3471 16.1416 21.3623 C.3 0 **** 0.268
1906 C2 36.612 15.0607 21.4444 C.3 0 **** 0.268
1907 N1 34.7002 13.8236 20.5379 N.2 0 **** 0.856
1908 N2 35.2168 15.0113 21.0496 N.2 0 **** -0.374
1909 N3 34.2295 16.3438 22.8133 N.2 0 **** -0.374
1910 N4 33.7302 15.35 23.6509 N.2 0 **** 0.856
1911 O1 33.5427 13.829 20.1844 O.2 0 **** -0.428
1912 O2 35.4569 12.8793 20.4785 O.2 0 **** -0.428
1913 O3 33.7003 15.587 24.838 O.2 0 **** -0.428
1914 O4 33.3612 14.321 23.1282 O.2 0 **** -0.428
1915 H 33.346 15.9407 20.9446 H 0 **** 0.053
1916 H 34.6928 17.0498 20.8386 H 0 **** 0.053
1917 H 37.2439 14.8363 20.5675 H 0 **** 0.053
1918 H 36.8291 14.2539 22.166 H 0 **** 0.053
1919 C1 36.9057 16.5677 23.4291 C.3 0 **** 0.268
1920 C2 34.6408 17.6486 23.3471 C.3 0 **** 0.268
1921 N1 36.5526 18.8857 24.2536 N.2 0 **** 0.856
1922 N2 36.0359 17.698 23.7419 N.2 0 **** -0.374
1923 N3 37.0233 16.3655 21.9781 N.2 0 **** -0.374
1924 N4 37.5225 17.3593 21.1406 N.2 0 **** 0.856
1925 O1 37.7101 18.8803 24.6071 O.2 0 **** -0.428
1926 O2 35.7959 19.83 24.3129 O.2 0 **** -0.428
1927 O3 37.5525 17.1223 19.9535 O.2 0 **** -0.428
1928 O4 37.8916 18.3883 21.6632 O.2 0 **** -0.428
1929 H 37.9068 16.7686 23.8468 H 0 **** 0.053
1930 H 36.56 15.6595 23.9529 H 0 **** 0.053
1931 H 34.0089 17.873 24.224 H 0 **** 0.053
1932 H 34.4237 18.4554 22.6255 H 0 **** 0.053
1933 C1 38.2657 11.2389 27.3871 C.3 0 **** 0.268
1934 C2 40.5306 10.158 27.4692 C.3 0 **** 0.268
1935 N1 38.6188 8.92093 26.5627 N.2 0 **** 0.856
1936 N2 39.1354 10.1086 27.0744 N.2 0 **** -0.374
1937 N3 38.1481 11.4411 28.8381 N.2 0 **** -0.374
1938 N4 37.6488 10.4473 29.6757 N.2 0 **** 0.856
1939 O1 37.4613 8.92629 26.2092 O.2 0 **** -0.428
1940 O2 39.3755 7.97659 26.5033 O.2 0 **** -0.428
1941 O3 37.6189 10.6843 30.8628 O.2 0 **** -0.428
1942 O4 37.2798 9.41833 29.153 O.2 0 **** -0.428
1943 H 37.2646 11.038 26.9694 H 0 **** 0.053
1944 H 38.6114 12.1471 26.8634 H 0 **** 0.053
1945 H 41.1625 9.9336 26.5923 H 0 **** 0.053
1946 H 40.7477 9.35126 28.1908 H 0 **** 0.053
1947 C1 40.8243 11.665 29.4539 C.3 0 **** 0.268
1948 C2 38.5594 12.7459 29.3719 C.3 0 **** 0.268
1949 N1 40.4712 13.983 30.2784 N.2 0 **** 0.856
1950 N2 39.9545 12.7953 29.7667 N.2 0 **** -0.374
1951 N3 40.9419 11.4628 28.0029 N.2 0 **** -0.374
1952 N4 41.4411 12.4566 27.1654 N.2 0 **** 0.856
1953 O1 41.6287 13.9777 30.6319 O.2 0 **** -0.428
1954 O2 39.7145 14.9273 30.3377 O.2 0 **** -0.428
1955 O3 41.4711 12.2196 25.9783 O.2 0 **** -0.428
1956 O4 41.8102 13.4856 27.688 O.2 0 **** -0.428
1957 H 41.8254 11.8659 29.8716 H 0 **** 0.053
1958 H 40.4786 10.7568 29.9777 H 0 **** 0.053
1959 H 37.9275 12.9703 30.2488 H 0 **** 0.053
1960 H 38.3423 13.5527 28.6503 H 0 **** 0.053
1961 C1 9.40958 35.7523 3.2879 C.3 0 **** 0.268
1962 C2 11.6745 34.6714 3.36997 C.3 0 **** 0.268
1963 N1 9.76269 33.4343 2.46344 N.2 0 **** 0.856
1964 N2 10.2793 34.622 2.97516 N.2 0 **** -0.374
1965 N3 9.29199 35.9545 4.7389 N.2 0 **** -0.374
1966 N4 8.79275 34.9607 5.57645 N.2 0 **** 0.856
1967 O1 8.60523 33.4397 2.10995 O.2 0 **** -0.428
1968 O2 10.5194 32.49 2.40412 O.2 0 **** -0.428
1969 O3 8.76277 35.1977 6.76357 O.2 0 **** -0.428
1970 O4 8.42368 33.9317 5.0538 O.2 0 **** -0.428
1971 H 8.40852 35.5514 2.87022 H 0 **** 0.053
1972 H 9.75529 36.6605 2.76416 H 0 **** 0.053
1973 H 12.3064 34.447 2.49306 H 0 **** 0.053
1974 H 11.8916 33.8646 4.09157 H 0 **** 0.053
1975 C1 11.9682 36.1784 5.35471 C.3 0 **** 0.268
1976 C2 9.70327 37.2593 5.27264 C.3 0 **** 0.268
1977 N1 11.6151 38.4964 6.17917 N.2 0 **** 0.856
1978 N2 11.0985 37.3087 5.66745 N.2 0 **** -0.374
1979 N3 12.0858 35.9762 3.90371 N.2 0 **** -0.374
1980 N4 12.585 36.97 3.06617 N.2 0 **** 0.856
1981 O1 12.7726 38.491 6.53267 O.2 0 **** -0.428
1982 O2 10.8584 39.4407 6.23849 O.2 0 **** -0.428
1983 O3 12.615 36.733 1.87904 O.2 0 **** -0.428
1984 O4 12.9541 37.999 3.58881 O.2 0 **** -0.428
1985 H 12.9693 36.3793 5.77239 H 0 **** 0.053
1986 H 11.6225 35.2702 5.87846 H 0 **** 0.053
1987 H 9.07139 37.4837 6.14956 H 0 **** 0.053
1988 H 9.48617 38.0661 4.55104 H 0 **** 0.053
1989 C1 13.3282 30.8496 9.31271 C.3 0 **** 0.268
1990 C2 15.5931 29.7687 9.39477 C.3 0 **** 0.268
1991 N1 13.6813 28.5316 8.48825 N.2 0 **** 0.856
1992 N2 14.198 29.7193 8.99997 N.2 0 **** -0.374
1993 N3 13.2106 31.0519 10.7637 N.2 0 **** -0.374
1994 N4 12.7114 30.058 11.6013 N.2 0 **** 0.856
1995 O1 12.5238 28.537 8.13475 O.2 0 **** -0.428
1996 O2 14.438 27.5873 8.42893 O.2 0 **** -0.428
1997 O3 12.6814 30.295 12.7884 O.2 0 **** -0.428
1998 O4 12.3423 29.029 11.0786 O.2 0 **** -0.428
1999 H 12.3271 30.6487 8.89502 H 0 **** 0.053
2000 H 13.6739 31.7578 8.78896 H 0 **** 0.053
2001 H 16.225 29.5443 8.51786 H 0 **** 0.053
2002 H 15.8102 28.962 10.1164 H 0 **** 0.053
2003 C1 15.8868 31.2757 11.3795 C.3 0 **** 0.268
2004 C2 13.6219 32.3566 11.2975 C.3 0 **** 0.268
2005 N1 15.5337 33.5937 12.204 N.2 0 **** 0.856
2006 N2 15.0171 32.406 11.6923 N.2 0 **** -0.374
2007 N3 16.0044 31.0735 9.92852 N.2 0 **** -0.374
2008 N4 16.5037 32.0673 9.09097 N.2 0 **** 0.856
2009 O1 16.6912 33.5884 12.5575 O.2 0 **** -0.428
2010 O2 14.777 34.5381 12.2633 O.2 0 **** -0.428
2011 O3 16.5336 31.8304 7.90385 O.2 0 **** -0.428
2012 O4 16.8727 33.0963 9.61362 O.2 0 **** -0.428
2013 H 16.8879 31.4766 11.7972 H 0 **** 0.053
2014 H 15.5411 30.3675 11.9033 H 0 **** 0.053
2015 H 12.99 32.581 12.1744 H 0 **** 0.053
2016 H 13.4048 33.1634 10.5758 H 0 **** 0.053
2017 C1 17.2468 25.947 15.3375 C.3 0 **** 0.268
2018 C2 19.5117 24.8661 15.4196 C.3 0 **** 0.268
2019 N1 17.5999 23.629 14.5131 N.2 0 **** 0.856
2020 N2 18.1166 24.8167 15.0248 N.2 0 **** -0.374
2021 N3 17.1292 26.1492 16.7885 N.2 0 **** -0.374
2022 N4 16.63 25.1554 17.6261 N.2 0 **** 0.856
2023 O1 16.4424 23.6343 14.1596 O.2 0 **** -0.428
2024 O2 18.3566 22.6846 14.4537 O.2 0 **** -0.428
2025 O3 16.6 25.3923 18.8132 O.2 0 **** -0.428
2026 O4 16.2609 24.1264 17.1034 O.2 0 **** -0.428
2027 H 16.2457 25.746 14.9198 H 0 **** 0.053
2028 H 17.5925 26.8551 14.8138 H 0 **** 0.053
2029 H 20.1436 24.6416 14.5427 H 0 **** 0.053
2030 H 19.7288 24.0593 16.1412 H 0 **** 0.053
2031 C1 19.8054 26.373 17.4043 C.3 0 **** 0.268
2032 C2 17.5405 27.4539 17.3223 C.3 0 **** 0.268
2033 N1 19.4523 28.691 18.2288 N.2 0 **** 0.856
2034 N2 18.9357 27.5033 17.7171 N.2 0 **** -0.374
2035 N3 19.923 26.1708 15.9533 N.2 0 **** -0.374
2036 N4 20.4223 27.1646 15.1158 N.2 0 **** 0.856
2037 O1 20.6098 28.6857 18.5823 O.2 0 **** -0.428
2038 O2 18.6956 29.6354 18.2881 O.2 0 **** -0.428
2039 O3 20.4522 26.9277 13.9287 O.2 0 **** -0.428
2040 O4 20.7913 28.1936 15.6384 O.2 0 **** -0.428
2041 H 20.8065 26.574 17.822 H 0 **** 0.053
2042 H 19.4597 25.4649 17.9281 H 0 **** 0.053
2043 H 16.9086 27.6784 18.1992 H 0 **** 0.053
2044 H 17.3234 28.2607 16.6007 H 0 **** 0.053
2045 C1 21.1654 21.0443 21.3623 C.3 0 **** 0.268
2046 C2 23.4303 19.9634 21.4444 C.3 0 **** 0.268
2047 N1 21.5185 18.7263 20.5379 N.2 0 **** 0.856
2048 N2 22.0352 19.914 21.0496 N.2 0 **** -0.374
2049 N3 21.0478 21.2465 22.8133 N.2 0 **** -0.374
2050 N4 20.5486 20.2527 23.6509 N.2 0 **** 0.856
2051 O1 20.3611 18.7316 20.1844 O.2 0 **** -0.428
2052 O2 22.2752 17.7819 20.4785 O.2 0 **** -0.428
2053 O3 20.5186 20.4896 24.838 O.2 0 **** -0.428
2054 O4 20.1795 19.2237 23.1282 O.2 0 **** -0.428
2055 H 20.1643 20.8434 20.9446 H 0 **** 0.053
2056 H 21.5111 21.9525 20.8386 H 0 **** 0.053
2057 H 24.0622 19.739 20.5675 H 0 **** 0.053
2058 H 23.6475 19.1566 22.166 H 0 **** 0.053
2059 C1 23.724 21.4704 23.4291 C.3 0 **** 0.268
2060 C2 21.4591 22.5513 23.3471 C.3 0 **** 0.268
2061 N1 23.3709 23.7884 24.2536 N.2 0 **** 0.856
2062 N2 22.8543 22.6007 23.7419 N.2 0 **** -0.374
2063 N3 23.8416 21.2681 21.9781 N.2 0 **** -0.374
2064 N4 24.3409 22.262 21.1406 N.2 0 **** 0.856
2065 O1 24.5284 23.783 24.6071 O.2 0 **** -0.428
2066 O2 22.6142 24.7327 24.3129 O.2 0 **** -0.428
2067 O3 24.3709 22.025 19.9535 O.2 0 **** -0.428
2068 O4 24.7099 23.291 21.6632 O.2 0 **** -0.428
2069 H 24.7251 21.6713 23.8468 H 0 **** 0.053
2070 H 23.3783 20.5622 23.9529 H 0 **** 0.053
2071 H 20.8272 22.7757 24.224 H 0 **** 0.053
2072 H 21.242 23.358 22.6255 H 0 **** 0.053
2073 C1 25.084 16.1416 27.3871 C.3 0 **** 0.268
2074 C2 27.349 15.0607 27.4692 C.3 0 **** 0.268
2075 N1 25.4371 13.8236 26.5627 N.2 0 **** 0.856
2076 N2 25.9538 15.0113 27.0744 N.2 0 **** -0.374
2077 N3 24.9664 16.3438 28.8381 N.2 0 **** -0.374
2078 N4 24.4672 15.35 29.6757 N.2 0 **** 0.856
2079 O1 24.2797 13.829 26.2092 O.2 0 **** -0.428
2080 O2 26.1939 12.8793 26.5033 O.2 0 **** -0.428
2081 O3 24.4372 15.587 30.8628 O.2 0 **** -0.428
2082 O4 24.0981 14.321 29.153 O.2 0 **** -0.428
2083 H 24.0829 15.9407 26.9694 H 0 **** 0.053
2084 H 25.4297 17.0498 26.8634 H 0 **** 0.053
2085 H 27.9808 14.8363 26.5923 H 0 **** 0.053
2086 H 27.5661 14.2539 28.1908 H 0 **** 0.053
2087 C1 27.6426 16.5677 29.4539 C.3 0 **** 0.268
2088 C2 25.3777 17.6486 29.3719 C.3 0 **** 0.268
2089 N1 27.2895 18.8857 30.2784 N.2 0 **** 0.856
2090 N2 26.7729 17.698 29.7667 N.2 0 **** -0.374
2091 N3 27.7602 16.3655 28.0029 N.2 0 **** -0.374
2092 N4 28.2595 17.3593 27.1654 N.2 0 **** 0.856
2093 O1 28.447 18.8803 30.6319 O.2 0 **** -0.428
2094 O2 26.5328 19.83 30.3377 O.2 0 **** -0.428
2095 O3 28.2895 17.1223 25.9783 O.2 0 **** -0.428
2096 O4 28.6286 18.3883 27.688 O.2 0 **** -0.428
2097 H 28.6437 16.7686 29.8716 H 0 **** 0.053
2098 H 27.2969 15.6595 29.9777 H 0 **** 0.053
2099 H 24.7458 17.873 30.2488 H 0 **** 0.053
2100 H 25.1606 18.4554 28.6503 H 0 **** 0.053
2101 C1 0.146524 35.7523 9.31271 C.3 0 **** 0.268
2102 C2 2.41147 34.6714 9.39477 C.3 0 **** 0.268
2103 N1 0.49963 33.4343 8.48825 N.2 0 **** 0.856
2104 N2 1.01629 34.622 8.99997 N.2 0 **** -0.374
2105 N3 0.0289297 35.9545 10.7637 N.2 0 **** -0.374
2106 N4 -0.470303 34.9607 11.6013 N.2 0 **** 0.856
2107 O1 -0.657826 33.4397 8.13475 O.2 0 **** -0.428
2108 O2 1.25637 32.49 8.42893 O.2 0 **** -0.428
2109 O3 -0.500291 35.1977 12.7884 O.2 0 **** -0.428
2110 O4 -0.83938 33.9317 11.0786 O.2 0 **** -0.428
2111 H -0.854539 35.5514 8.89502 H 0 **** 0.053
2112 H 0.492233 36.6605 8.78896 H 0 **** 0.053
2113 H 3.04335 34.447 8.51786 H 0 **** 0.053
2114 H 2.62858 33.8646 10.1164 H 0 **** 0.053
2115 C1 2.70516 36.1784 11.3795 C.3 0 **** 0.268
2116 C2 0.440215 37.2593 11.2975 C.3 0 **** 0.268
2117 N1 2.35206 38.4964 12.204 N.2 0 **** 0.856
2118 N2 1.8354 37.3087 11.6923 N.2 0 **** -0.374
2119 N3 2.82276 35.9762 9.92852 N.2 0 **** -0.374
2120 N4 3.32199 36.97 9.09097 N.2 0 **** 0.856
2121 O1 3.50951 38.491 12.5575 O.2 0 **** -0.428
2122 O2 1.59532 39.4407 12.2633 O.2 0 **** -0.428
2123 O3 3.35198 36.733 7.90385 O.2 0 **** -0.428
2124 O4 3.69107 37.999 9.61362 O.2 0 **** -0.428
2125 H 3.70622 36.3793 11.7972 H 0 **** 0.053
2126 H 2.35945 35.2702 11.9033 H 0 **** 0.053
2127 H -0.191663 37.4837 12.1744 H 0 **** 0.053
2128 H 0.22311 38.0661 10.5758 H 0 **** 0.053
2129 C1 4.06513 30.8496 15.3375 C.3 0 **** 0.268
2130 C2 6.33008 29.7687 15.4196 C.3 0 **** 0.268
2131 N1 4.41824 28.5316 14.5131 N.2 0 **** 0.856
2132 N2 4.93489 29.7193 15.0248 N.2 0 **** -0.374
2133 N3 3.94754 31.0519 16.7885 N.2 0 **** -0.374
2134 N4 3.4483 30.058 17.6261 N.2 0 **** 0.856
2135 O1 3.26078 28.537 14.1596 O.2 0 **** -0.428
2136 O2 5.17497 27.5873 14.4537 O.2 0 **** -0.428
2137 O3 3.41832 30.295 18.8132 O.2 0 **** -0.428
2138 O4 3.07923 29.029 17.1034 O.2 0 **** -0.428
2139 H 3.06407 30.6487 14.9198 H 0 **** 0.053
2140 H 4.41084 31.7578 14.8138 H 0 **** 0.053
2141 H 6.96196 29.5443 14.5427 H 0 **** 0.053
2142 H 6.54718 28.962 16.1412 H 0 **** 0.053
2143 C1 6.62377 31.2757 17.4043 C.3 0 **** 0.268
2144 C2 4.35882 32.3566 17.3223 C.3 0 **** 0.268
2145 N1 6.27066 33.5937 18.2288 N.2 0 **** 0.856
2146 N2 5.754 32.406 17.7171 N.2 0 **** -0.374
2147 N3 6.74136 31.0735 15.9533 N.2 0 **** -0.374
2148 N4 7.2406 32.0673 15.1158 N.2 0 **** 0.856
2149 O1 7.42812 33.5884 18.5823 O.2 0 **** -0.428
2150 O2 5.51393 34.5381 18.2881 O.2 0 **** -0.428
2151 O3 7.27058 31.8304 13.9287 O.2 0 **** -0.428
2152 O4 7.60967 33.0963 15.6384 O.2 0 **** -0.428
2153 H 7.62483 31.4766 17.822 H 0 **** 0.053
2154 H 6.27806 30.3675 17.9281 H 0 **** 0.053
2155 H 3.72694 32.581 18.1992 H 0 **** 0.053
2156 H 4.14172 33.1634 16.6007 H 0 **** 0.053
2157 C1 7.98374 25.947 21.3623 C.3 0 **** 0.268
2158 C2 10.2487 24.8661 21.4444 C.3 0 **** 0.268
2159 N1 8.33684 23.629 20.5379 N.2 0 **** 0.856
2160 N2 8.8535 24.8167 21.0496 N.2 0 **** -0.374
2161 N3 7.86614 26.1492 22.8133 N.2 0 **** -0.374
2162 N4 7.36691 25.1554 23.6509 N.2 0 **** 0.856
2163 O1 7.17939 23.6343 20.1844 O.2 0 **** -0.428
2164 O2 9.09358 22.6846 20.4785 O.2 0 **** -0.428
2165 O3 7.33692 25.3923 24.838 O.2 0 **** -0.428
2166 O4 6.99783 24.1264 23.1282 O.2 0 **** -0.428
2167 H 6.98267 25.746 20.9446 H 0 **** 0.053
2168 H 8.32945 26.8551 20.8386 H 0 **** 0.053
2169 H 10.8806 24.6416 20.5675 H 0 **** 0.053
2170 H 10.4658 24.0593 22.166 H 0 **** 0.053
2171 C1 10.5424 26.373 23.4291 C.3 0 **** 0.268
2172 C2 8.27743 27.4539 23.3471 C.3 0 **** 0.268
2173 N1 10.1893 28.691 24.2536 N.2 0 **** 0.856
2174 N2 9.67261 27.5033 23.7419 N.2 0 **** -0.374
2175 N3 10.66 26.1708 21.9781 N.2 0 **** -0.374
2176 N4 11.1592 27.1646 21.1406 N.2 0 **** 0.856
2177 O1 11.3467 28.6857 24.6071 O.2 0 **** -0.428
2178 O2 9.43253 29.6354 24.3129 O.2 0 **** -0.428
2179 O3 11.1892 26.9277 19.9535 O.2 0 **** -0.428
2180 O4 11.5283 28.1936 21.6632 O.2 0 **** -0.428
2181 H 11.5434 26.574 23.8468 H 0 **** 0.053
2182 H 10.1967 25.4649 23.9529 H 0 **** 0.053
2183 H 7.64555 27.6784 24.224 H 0 **** 0.053
2184 H 8.06032 28.2607 22.6255 H 0 **** 0.053
2185 C1 11.9023 21.0443 27.3871 C.3 0 **** 0.268
2186 C2 14.1673 19.9634 27.4692 C.3 0 **** 0.268
2187 N1 12.2555 18.7263 26.5627 N.2 0 **** 0.856
2188 N2 12.7721 19.914 27.0744 N.2 0 **** -0.374
2189 N3 11.7848 21.2465 28.8381 N.2 0 **** -0.374
2190 N4 11.2855 20.2527 29.6757 N.2 0 **** 0.856
2191 O1 11.098 18.7316 26.2092 O.2 0 **** -0.428
2192 O2 13.0122 17.7819 26.5033 O.2 0 **** -0.428
2193 O3 11.2555 20.4896 30.8628 O.2 0 **** -0.428
2194 O4 10.9164 19.2237 29.153 O.2 0 **** -0.428
2195 H 10.9013 20.8434 26.9694 H 0 **** 0.053
2196 H 12.2481 21.9525 26.8634 H 0 **** 0.053
2197 H 14.7992 19.739 26.5923 H 0 **** 0.053
2198 H 14.3844 19.1566 28.1908 H 0 **** 0.053
2199 C1 14.461 21.4704 29.4539 C.3 0 **** 0.268
2200 C2 12.196 22.5513 29.3719 C.3 0 **** 0.268
2201 N1 14.1079 23.7884 30.2784 N.2 0 **** 0.856
2202 N2 13.5912 22.6007 29.7667 N.2 0 **** -0.374
2203 N3 14.5786 21.2681 28.0029 N.2 0 **** -0.374
2204 N4 15.0778 22.262 27.1654 N.2 0 **** 0.856
2205 O1 15.2653 23.783 30.6319 O.2 0 **** -0.428
2206 O2 13.3511 24.7327 30.3377 O.2 0 **** -0.428
2207 O3 15.1078 22.025 25.9783 O.2 0 **** -0.428
2208 O4 15.4469 23.291 27.688 O.2 0 **** -0.428
2209 H 15.462 21.6713 29.8716 H 0 **** 0.053
2210 H 14.1153 20.5622 29.9777 H 0 **** 0.053
2211 H 11.5642 22.7757 30.2488 H 0 **** 0.053
2212 H 11.9789 23.358 28.6503 H 0 **** 0.053
2213 C1 -1.27932 25.947 27.3871 C.3 0 **** 0.268
2214 C2 0.985628 24.8661 27.4692 C.3 0 **** 0.268
2215 N1 -0.926213 23.629 26.5627 N.2 0 **** 0.856
2216 N2 -0.409555 24.8167 27.0744 N.2 0 **** -0.374
2217 N3 -1.39691 26.1492 28.8381 N.2 0 **** -0.374
2218 N4 -1.89615 25.1554 29.6757 N.2 0 **** 0.856
2219 O1 -2.08367 23.6343 26.2092 O.2 0 **** -0.428
2220 O2 -0.169476 22.6846 26.5033 O.2 0 **** -0.428
2221 O3 -1.92613 25.3923 30.8628 O.2 0 **** -0.428
2222 O4 -2.26522 24.1264 29.153 O.2 0 **** -0.428
2223 H -2.28038 25.746 26.9694 H 0 **** 0.053
2224 H -0.93361 26.8551 26.8634 H 0 **** 0.053
2225 H 1.61751 24.6416 26.5923 H 0 **** 0.053
2226 H 1.20273 24.0593 28.1908 H 0 **** 0.053
2227 C1 1.27932 26.373 29.4539 C.3 0 **** 0.268
2228 C2 -0.985628 27.4539 29.3719 C.3 0 **** 0.268
2229 N1 0.926213 28.691 30.2784 N.2 0 **** 0.856
2230 N2 0.409555 27.5033 29.7667 N.2 0 **** -0.374
2231 N3 1.39691 26.1708 28.0029 N.2 0 **** -0.374
2232 N4 1.89615 27.1646 27.1654 N.2 0 **** 0.856
2233 O1 2.08367 28.6857 30.6319 O.2 0 **** -0.428
2234 O2 0.169476 29.6354 30.3377 O.2 0 **** -0.428
2235 O3 1.92613 26.9277 25.9783 O.2 0 **** -0.428
2236 O4 2.26522 28.1936 27.688 O.2 0 **** -0.428
2237 H 2.28038 26.574 29.8716 H 0 **** 0.053
2238 H 0.93361 25.4649 29.9777 H 0 **** 0.053
2239 H -1.61751 27.6784 30.2488 H 0 **** 0.053
2240 H -1.20273 28.2607 28.6503 H 0 **** 0.053
2241 C1 62.1362 22.6816 3.2879 C.3 0 **** 0.268
2242 C2 64.4012 21.6007 3.36997 C.3 0 **** 0.268
2243 N1 62.4893 20.3636 2.46344 N.2 0 **** 0.856
2244 N2 63.006 21.5513 2.97516 N.2 0 **** -0.374
2245 N3 62.0186 22.8838 4.7389 N.2 0 **** -0.374
2246 N4 61.5194 21.89 5.57645 N.2 0 **** 0.856
2247 O1 61.3319 20.369 2.10995 O.2 0 **** -0.428
2248 O2 63.2461 19.4193 2.40412 O.2 0 **** -0.428
2249 O3 61.4894 22.127 6.76357 O.2 0 **** -0.428
2250 O4 61.1503 20.861 5.0538 O.2 0 **** -0.428
2251 H 61.1352 22.4807 2.87022 H 0 **** 0.053
2252 H 62.4819 23.5898 2.76416 H 0 **** 0.053
2253 H 65.0331 21.3763 2.49306 H 0 **** 0.053
2254 H 64.6183 20.7939 4.09157 H 0 **** 0.053
2255 C1 64.6949 23.1077 5.35471 C.3 0 **** 0.268
2256 C2 62.4299 24.1886 5.27264 C.3 0 **** 0.268
2257 N1 64.3418 25.4257 6.17917 N.2 0 **** 0.856
2258 N2 63.8251 24.238 5.66745 N.2 0 **** -0.374
2259 N3 64.8125 22.9055 3.90371 N.2 0 **** -0.374
2260 N4 65.3117 23.8993 3.06617 N.2 0 **** 0.856
2261 O1 65.4992 25.4203 6.53267 O.2 0 **** -0.428
2262 O2 63.585 26.37 6.23849 O.2 0 **** -0.428
2263 O3 65.3417 23.6623 1.87904 O.2 0 **** -0.428
2264 O4 65.6808 24.9283 3.58881 O.2 0 **** -0.428
2265 H 65.6959 23.3086 5.77239 H 0 **** 0.053
2266 H 64.3492 22.1995 5.87846 H 0 **** 0.053
2267 H 61.798 24.413 6.14956 H 0 **** 0.053
2268 H 62.2128 24.9954 4.55104 H 0 **** 0.053
2269 C1 48.9546 27.5843 3.2879 C.3 0 **** 0.268
2270 C2 51.2195 26.5034 3.36997 C.3 0 **** 0.268
2271 N1 49.3077 25.2663 2.46344 N.2 0 **** 0.856
2272 N2 49.8243 26.454 2.97516 N.2 0 **** -0.374
2273 N3 48.837 27.7865 4.7389 N.2 0 **** -0.374
2274 N4 48.3377 26.7927 5.57645 N.2 0 **** 0.856
2275 O1 48.1502 25.2716 2.10995 O.2 0 **** -0.428
2276 O2 50.0644 24.3219 2.40412 O.2 0 **** -0.428
2277 O3 48.3078 27.0296 6.76357 O.2 0 **** -0.428
2278 O4 47.9687 25.7637 5.0538 O.2 0 **** -0.428
2279 H 47.9535 27.3834 2.87022 H 0 **** 0.053
2280 H 49.3003 28.4925 2.76416 H 0 **** 0.053
2281 H 51.8514 26.279 2.49306 H 0 **** 0.053
2282 H 51.4366 25.6966 4.09157 H 0 **** 0.053
2283 C1 51.5132 28.0104 5.35471 C.3 0 **** 0.268
2284 C2 49.2483 29.0913 5.27264 C.3 0 **** 0.268
2285 N1 51.1601 30.3284 6.17917 N.2 0 **** 0.856
2286 N2 50.6434 29.1407 5.66745 N.2 0 **** -0.374
2287 N3 51.6308 27.8081 3.90371 N.2 0 **** -0.374
2288 N4 52.13 28.802 3.06617 N.2 0 **** 0.856
2289 O1 52.3176 30.323 6.53267 O.2 0 **** -0.428
2290 O2 50.4034 31.2727 6.23849 O.2 0 **** -0.428
2291 O3 52.16 28.565 1.87904 O.2 0 **** -0.428
2292 O4 52.4991 29.831 3.58881 O.2 0 **** -0.428
2293 H 52.5143 28.2113 5.77239 H 0 **** 0.053
2294 H 51.1675 27.1022 5.87846 H 0 **** 0.053
2295 H 48.6164 29.3157 6.14956 H 0 **** 0.053
2296 H 49.0312 29.898 4.55104 H 0 **** 0.053
2297 C1 52.8732 22.6816 9.31271 C.3 0 **** 0.268
2298 C2 55.1381 21.6007 9.39477 C.3 0 **** 0.268
2299 N1 53.2263 20.3636 8.48825 N.2 0 **** 0.856
2300 N2 53.7429 21.5513 8.99997 N.2 0 **** -0.374
2301 N3 52.7556 22.8838 10.7637 N.2 0 **** -0.374
2302 N4 52.2564 21.89 11.6013 N.2 0 **** 0.856
2303 O1 52.0688 20.369 8.13475 O.2 0 **** -0.428
2304 O2 53.983 19.4193 8.42893 O.2 0 **** -0.428
2305 O3 52.2264 22.127 12.7884 O.2 0 **** -0.428
2306 O4 51.8873 20.861 11.0786 O.2 0 **** -0.428
2307 H 51.8721 22.4807 8.89502 H 0 **** 0.053
2308 H 53.2189 23.5898 8.78896 H 0 **** 0.053
2309 H 55.77 21.3763 8.51786 H 0 **** 0.053
2310 H 55.3552 20.7939 10.1164 H 0 **** 0.053
2311 C1 55.4318 23.1077 11.3795 C.3 0 **** 0.268
2312 C2 53.1669 24.1886 11.2975 C.3 0 **** 0.268
2313 N1 55.0787 25.4257 12.204 N.2 0 **** 0.856
2314 N2 54.5621 24.238 11.6923 N.2 0 **** -0.374
2315 N3 55.5494 22.9055 9.92852 N.2 0 **** -0.374
2316 N4 56.0486 23.8993 9.09097 N.2 0 **** 0.856
2317 O1 56.2362 25.4203 12.5575 O.2 0 **** -0.428
2318 O2 54.322 26.37 12.2633 O.2 0 **** -0.428
2319 O3 56.0786 23.6623 7.90385 O.2 0 **** -0.428
2320 O4 56.4177 24.9283 9.61362 O.2 0 **** -0.428
2321 H 56.4329 23.3086 11.7972 H 0 **** 0.053
2322 H 55.0861 22.1995 11.9033 H 0 **** 0.053
2323 H 52.535 24.413 12.1744 H 0 **** 0.053
2324 H 52.9498 24.9954 10.5758 H 0 **** 0.053
2325 C1 56.7918 17.7789 15.3375 C.3 0 **** 0.268
2326 C2 59.0567 16.698 15.4196 C.3 0 **** 0.268
2327 N1 57.1449 15.4609 14.5131 N.2 0 **** 0.856
2328 N2 57.6616 16.6486 15.0248 N.2 0 **** -0.374
2329 N3 56.6742 17.9811 16.7885 N.2 0 **** -0.374
2330 N4 56.175 16.9873 17.6261 N.2 0 **** 0.856
2331 O1 55.9874 15.4663 14.1596 O.2 0 **** -0.428
2332 O2 57.9016 14.5166 14.4537 O.2 0 **** -0.428
2333 O3 56.145 17.2243 18.8132 O.2 0 **** -0.428
2334 O4 55.8059 15.9583 17.1034 O.2 0 **** -0.428
2335 H 55.7907 17.578 14.9198 H 0 **** 0.053
2336 H 57.1375 18.6871 14.8138 H 0 **** 0.053
2337 H 59.6886 16.4736 14.5427 H 0 **** 0.053
2338 H 59.2738 15.8913 16.1412 H 0 **** 0.053
2339 C1 59.3504 18.205 17.4043 C.3 0 **** 0.268
2340 C2 57.0855 19.2859 17.3223 C.3 0 **** 0.268
2341 N1 58.9973 20.523 18.2288 N.2 0 **** 0.856
2342 N2 58.4807 19.3353 17.7171 N.2 0 **** -0.374
2343 N3 59.468 18.0028 15.9533 N.2 0 **** -0.374
2344 N4 59.9673 18.9966 15.1158 N.2 0 **** 0.856
2345 O1 60.1548 20.5177 18.5823 O.2 0 **** -0.428
2346 O2 58.2406 21.4673 18.2881 O.2 0 **** -0.428
2347 O3 59.9972 18.7596 13.9287 O.2 0 **** -0.428
2348 O4 60.3363 20.0256 15.6384 O.2 0 **** -0.428
2349 H 60.3515 18.4059 17.822 H 0 **** 0.053
2350 H 59.0047 17.2968 17.9281 H 0 **** 0.053
2351 H 56.4536 19.5103 18.1992 H 0 **** 0.053
2352 H 56.8684 20.0927 16.6007 H 0 **** 0.053
2353 C1 60.7104 12.8763 21.3623 C.3 0 **** 0.268
2354 C2 62.9753 11.7954 21.4444 C.3 0 **** 0.268
2355 N1 61.0635 10.5583 20.5379 N.2 0 **** 0.856
2356 N2 61.5802 11.7459 21.0496 N.2 0 **** -0.374
2357 N3 60.5928 13.0785 22.8133 N.2 0 **** -0.374
2358 N4 60.0936 12.0847 23.6509 N.2 0 **** 0.856
2359 O1 59.906 10.5636 20.1844 O.2 0 **** -0.428
2360 O2 61.8202 9.61392 20.4785 O.2 0 **** -0.428
2361 O3 60.0636 12.3216 24.838 O.2 0 **** -0.428
2362 O4 59.7245 11.0557 23.1282 O.2 0 **** -0.428
2363 H 59.7093 12.6753 20.9446 H 0 **** 0.053
2364 H 61.0561 13.7844 20.8386 H 0 **** 0.053
2365 H 63.6072 11.5709 20.5675 H 0 **** 0.053
2366 H 63.1924 10.9886 22.166 H 0 **** 0.053
2367 C1 63.269 13.3023 23.4291 C.3 0 **** 0.268
2368 C2 61.0041 14.3832 23.3471 C.3 0 **** 0.268
2369 N1 62.9159 15.6203 24.2536 N.2 0 **** 0.856
2370 N2 62.3993 14.4326 23.7419 N.2 0 **** -0.374
2371 N3 63.3866 13.1001 21.9781 N.2 0 **** -0.374
2372 N4 63.8859 14.0939 21.1406 N.2 0 **** 0.856
2373 O1 64.0734 15.615 24.6071 O.2 0 **** -0.428
2374 O2 62.1592 16.5647 24.3129 O.2 0 **** -0.428
2375 O3 63.9158 13.857 19.9535 O.2 0 **** -0.428
2376 O4 64.2549 15.1229 21.6632 O.2 0 **** -0.428
2377 H 64.2701 13.5033 23.8468 H 0 **** 0.053
2378 H 62.9233 12.3942 23.9529 H 0 **** 0.053
2379 H 60.3722 14.6077 24.224 H 0 **** 0.053
2380 H 60.787 15.19 22.6255 H 0 **** 0.053
2381 C1 35.7729 32.487 3.2879 C.3 0 **** 0.268
2382 C2 38.0379 31.4061 3.36997 C.3 0 **** 0.268
2383 N1 36.126 30.169 2.46344 N.2 0 **** 0.856
2384 N2 36.6427 31.3567 2.97516 N.2 0 **** -0.374
2385 N3 35.6553 32.6892 4.7389 N.2 0 **** -0.374
2386 N4 35.1561 31.6954 5.57645 N.2 0 **** 0.856
2387 O1 34.9686 30.1743 2.10995 O.2 0 **** -0.428
2388 O2 36.8828 29.2246 2.40412 O.2 0 **** -0.428
2389 O3 35.1261 31.9323 6.76357 O.2 0 **** -0.428
2390 O4 34.787 30.6664 5.0538 O.2 0 **** -0.428
2391 H 34.7718 32.286 2.87022 H 0 **** 0.053
2392 H 36.1186 33.3951 2.76416 H 0 **** 0.053
2393 H 38.6697 31.1816 2.49306 H 0 **** 0.053
2394 H 38.255 30.5993 4.09157 H 0 **** 0.053
2395 C1 38.3315 32.913 5.35471 C.3 0 **** 0.268
2396 C2 36.0666 33.9939 5.27264 C.3 0 **** 0.268
2397 N1 37.9784 35.231 6.17917 N.2 0 **** 0.856
2398 N2 37.4618 34.0433 5.66745 N.2 0 **** -0.374
2399 N3 38.4491 32.7108 3.90371 N.2 0 **** -0.374
2400 N4 38.9484 33.7046 3.06617 N.2 0 **** 0.856
2401 O1 39.1359 35.2257 6.53267 O.2 0 **** -0.428
2402 O2 37.2217 36.1754 6.23849 O.2 0 **** -0.428
2403 O3 38.9784 33.4677 1.87904 O.2 0 **** -0.428
2404 O4 39.3174 34.7336 3.58881 O.2 0 **** -0.428
2405 H 39.3326 33.114 5.77239 H 0 **** 0.053
2406 H 37.9858 32.0049 5.87846 H 0 **** 0.053
2407 H 35.4347 34.2184 6.14956 H 0 **** 0.053
2408 H 35.8495 34.8007 4.55104 H 0 **** 0.053
2409 C1 39.6915 27.5843 9.31271 C.3 0 **** 0.268
2410 C2 41.9565 26.5034 9.39477 C.3 0 **** 0.268
2411 N1 40.0446 25.2663 8.48825 N.2 0 **** 0.856
2412 N2 40.5613 26.454 8.99997 N.2 0 **** -0.374
2413 N3 39.5739 27.7865 10.7637 N.2 0 **** -0.374
2414 N4 39.0747 26.7927 11.6013 N.2 0 **** 0.856
2415 O1 38.8872 25.2716 8.13475 O.2 0 **** -0.428
2416 O2 40.8014 24.3219 8.42893 O.2 0 **** -0.428
2417 O3 39.0447 27.0296 12.7884 O.2 0 **** -0.428
2418 O4 38.7056 25.7637 11.0786 O.2 0 **** -0.428
2419 H 38.6905 27.3834 8.89502 H 0 **** 0.053
2420 H 40.0372 28.4925 8.78896 H 0 **** 0.053
2421 H 42.5883 26.279 8.51786 H 0 **** 0.053
2422 H 42.1736 25.6966 10.1164 H 0 **** 0.053
2423 C1 42.2502 28.0104 11.3795 C.3 0 **** 0.268
2424 C2 39.9852 29.0913 11.2975 C.3 0 **** 0.268
2425 N1 41.897 30.3284 12.204 N.2 0 **** 0.856
2426 N2 41.3804 29.1407 11.6923 N.2 0 **** -0.374
2427 N3 42.3677 27.8081 9.92852 N.2 0 **** -0.374
2428 N4 42.867 28.802 9.09097 N.2 0 **** 0.856
2429 O1 43.0545 30.323 12.5575 O.2 0 **** -0.428
2430 O2 41.1403 31.2727 12.2633 O.2 0 **** -0.428
2431 O3 42.897 28.565 7.90385 O.2 0 **** -0.428
2432 O4 43.2361 29.831 9.61362 O.2 0 **** -0.428
2433 H 43.2512 28.2113 11.7972 H 0 **** 0.053
2434 H 41.9044 27.1022 11.9033 H 0 **** 0.053
2435 H 39.3533 29.3157 12.1744 H 0 **** 0.053
2436 H 39.7681 29.898 10.5758 H 0 **** 0.053
2437 C1 43.6101 22.6816 15.3375 C.3 0 **** 0.268
2438 C2 45.8751 21.6007 15.4196 C.3 0 **** 0.268
2439 N1 43.9632 20.3636 14.5131 N.2 0 **** 0.856
2440 N2 44.4799 21.5513 15.0248 N.2 0 **** -0.374
2441 N3 43.4925 22.8838 16.7885 N.2 0 **** -0.374
2442 N4 42.9933 21.89 17.6261 N.2 0 **** 0.856
2443 O1 42.8058 20.369 14.1596 O.2 0 **** -0.428
2444 O2 44.72 19.4193 14.4537 O.2 0 **** -0.428
2445 O3 42.9633 22.127 18.8132 O.2 0 **** -0.428
2446 O4 42.6242 20.861 17.1034 O.2 0 **** -0.428
2447 H 42.6091 22.4807 14.9198 H 0 **** 0.053
2448 H 43.9558 23.5898 14.8138 H 0 **** 0.053
2449 H 46.5069 21.3763 14.5427 H 0 **** 0.053
2450 H 46.0922 20.7939 16.1412 H 0 **** 0.053
2451 C1 46.1688 23.1077 17.4043 C.3 0 **** 0.268
2452 C2 43.9038 24.1886 17.3223 C.3 0 **** 0.268
2453 N1 45.8157 25.4257 18.2288 N.2 0 **** 0.856
2454 N2 45.299 24.238 17.7171 N.2 0 **** -0.374
2455 N3 46.2864 22.9055 15.9533 N.2 0 **** -0.374
2456 N4 46.7856 23.8993 15.1158 N.2 0 **** 0.856
2457 O1 46.9731 25.4203 18.5823 O.2 0 **** -0.428
2458 O2 45.0589 26.37 18.2881 O.2 0 **** -0.428
2459 O3 46.8156 23.6623 13.9287 O.2 0 **** -0.428
2460 O4 47.1547 24.9283 15.6384 O.2 0 **** -0.428
2461 H 47.1698 23.3086 17.822 H 0 **** 0.053
2462 H 45.8231 22.1995 17.9281 H 0 **** 0.053
2463 H 43.2719 24.413 18.1992 H 0 **** 0.053
2464 H 43.6867 24.9954 16.6007 H 0 **** 0.053
2465 C1 47.5287 17.7789 21.3623 C.3 0 **** 0.268
2466 C2 49.7937 16.698 21.4444 C.3 0 **** 0.268
2467 N1 47.8818 15.4609 20.5379 N.2 0 **** 0.856
2468 N2 48.3985 16.6486 21.0496 N.2 0 **** -0.374
2469 N3 47.4111 17.9811 22.8133 N.2 0 **** -0.374
2470 N4 46.9119 16.9873 23.6509 N.2 0 **** 0.856
2471 O1 46.7244 15.4663 20.1844 O.2 0 **** -0.428
2472 O2 48.6386 14.5166 20.4785 O.2 0 **** -0.428
2473 O3 46.8819 17.2243 24.838 O.2 0 **** -0.428
2474 O4 46.5428 15.9583 23.1282 O.2 0 **** -0.428
2475 H 46.5277 17.578 20.9446 H 0 **** 0.053
2476 H 47.8744 18.6871 20.8386 H 0 **** 0.053
2477 H 50.4256 16.4736 20.5675 H 0 **** 0.053
2478 H 50.0108 15.8913 22.166 H 0 **** 0.053
2479 C1 50.0874 18.205 23.4291 C.3 0 **** 0.268
2480 C2 47.8224 19.2859 23.3471 C.3 0 **** 0.268
2481 N1 49.7343 20.523 24.2536 N.2 0 **** 0.856
2482 N2 49.2176 19.3353 23.7419 N.2 0 **** -0.374
2483 N3 50.205 18.0028 21.9781 N.2 0 **** -0.374
2484 N4 50.7042 18.9966 21.1406 N.2 0 **** 0.856
2485 O1 50.8917 20.5177 24.6071 O.2 0 **** -0.428
2486 O2 48.9775 21.4673 24.3129 O.2 0 **** -0.428
2487 O3 50.7342 18.7596 19.9535 O.2 0 **** -0.428
2488 O4 51.0733 20.0256 21.6632 O.2 0 **** -0.428
2489 H 51.0884 18.4059 23.8468 H 0 **** 0.053
2490 H 49.7417 17.2968 23.9529 H 0 **** 0.053
2491 H 47.1905 19.5103 24.224 H 0 **** 0.053
2492 H 47.6053 20.0927 22.6255 H 0 **** 0.053
2493 C1 51.4473 12.8763 27.3871 C.3 0 **** 0.268
2494 C2 53.7123 11.7954 27.4692 C.3 0 **** 0.268
2495 N1 51.8004 10.5583 26.5627 N.2 0 **** 0.856
2496 N2 52.3171 11.7459 27.0744 N.2 0 **** -0.374
2497 N3 51.3297 13.0785 28.8381 N.2 0 **** -0.374
2498 N4 50.8305 12.0847 29.6757 N.2 0 **** 0.856
2499 O1 50.643 10.5636 26.2092 O.2 0 **** -0.428
2500 O2 52.5572 9.61392 26.5033 O.2 0 **** -0.428
2501 O3 50.8005 12.3216 30.8628 O.2 0 **** -0.428
2502 O4 50.4614 11.0557 29.153 O.2 0 **** -0.428
2503 H 50.4463 12.6753 26.9694 H 0 **** 0.053
2504 H 51.793 13.7844 26.8634 H 0 **** 0.053
2505 H 54.3442 11.5709 26.5923 H 0 **** 0.053
2506 H 53.9294 10.9886 28.1908 H 0 **** 0.053
2507 C1 54.006 13.3023 29.4539 C.3 0 **** 0.268
2508 C2 51.741 14.3832 29.3719 C.3 0 **** 0.268
2509 N1 53.6529 15.6203 30.2784 N.2 0 **** 0.856
2510 N2 53.1362 14.4326 29.7667 N.2 0 **** -0.374
2511 N3 54.1236 13.1001 28.0029 N.2 0 **** -0.374
2512 N4 54.6228 14.0939 27.1654 N.2 0 **** 0.856
2513 O1 54.8103 15.615 30.6319 O.2 0 **** -0.428
2514 O2 52.8961 16.5647 30.3377 O.2 0 **** -0.428
2515 O3 54.6528 13.857 25.9783 O.2 0 **** -0.428
2516 O4 54.9919 15.1229 27.688 O.2 0 **** -0.428
2517 H 55.007 13.5033 29.8716 H 0 **** 0.053
2518 H 53.6603 12.3942 29.9777 H 0 **** 0.053
2519 H 51.1091 14.6077 30.2488 H 0 **** 0.053
2520 H 51.5239 15.19 28.6503 H 0 **** 0.053
2521 C1 22.5912 37.3896 3.2879 C.3 0 **** 0.268
2522 C2 24.8562 36.3087 3.36997 C.3 0 **** 0.268
2523 N1 22.9444 35.0716 2.46344 N.2 0 **** 0.856
2524 N2 23.461 36.2593 2.97516 N.2 0 **** -0.374
2525 N3 22.4737 37.5919 4.7389 N.2 0 **** -0.374
2526 N4 21.9744 36.598 5.57645 N.2 0 **** 0.856
2527 O1 21.7869 35.077 2.10995 O.2 0 **** -0.428
2528 O2 23.7011 34.1273 2.40412 O.2 0 **** -0.428
2529 O3 21.9444 36.835 6.76357 O.2 0 **** -0.428
2530 O4 21.6053 35.569 5.0538 O.2 0 **** -0.428
2531 H 21.5902 37.1887 2.87022 H 0 **** 0.053
2532 H 22.937 38.2978 2.76416 H 0 **** 0.053
2533 H 25.4881 36.0843 2.49306 H 0 **** 0.053
2534 H 25.0733 35.502 4.09157 H 0 **** 0.053
2535 C1 25.1499 37.8157 5.35471 C.3 0 **** 0.268
2536 C2 22.8849 38.8966 5.27264 C.3 0 **** 0.268
2537 N1 24.7968 40.1337 6.17917 N.2 0 **** 0.856
2538 N2 24.2801 38.946 5.66745 N.2 0 **** -0.374
2539 N3 25.2675 37.6135 3.90371 N.2 0 **** -0.374
2540 N4 25.7667 38.6073 3.06617 N.2 0 **** 0.856
2541 O1 25.9542 40.1284 6.53267 O.2 0 **** -0.428
2542 O2 24.04 41.0781 6.23849 O.2 0 **** -0.428
2543 O3 25.7967 38.3704 1.87904 O.2 0 **** -0.428
2544 O4 26.1358 39.6363 3.58881 O.2 0 **** -0.428
2545 H 26.1509 38.0166 5.77239 H 0 **** 0.053
2546 H 24.8042 36.9075 5.87846 H 0 **** 0.053
2547 H 22.2531 39.121 6.14956 H 0 **** 0.053
2548 H 22.6678 39.7034 4.55104 H 0 **** 0.053
2549 C1 26.5099 32.487 9.31271 C.3 0 **** 0.268
2550 C2 28.7748 31.4061 9.39477 C.3 0 **** 0.268
2551 N1 26.863 30.169 8.48825 N.2 0 **** 0.856
2552 N2 27.3796 31.3567 8.99997 N.2 0 **** -0.374
2553 N3 26.3923 32.6892 10.7637 N.2 0 **** -0.374
2554 N4 25.893 31.6954 11.6013 N.2 0 **** 0.856
2555 O1 25.7055 30.1743 8.13475 O.2 0 **** -0.428
2556 O2 27.6197 29.2246 8.42893 O.2 0 **** -0.428
2557 O3 25.863 31.9323 12.7884 O.2 0 **** -0.428
2558 O4 25.5239 30.6664 11.0786 O.2 0 **** -0.428
2559 H 25.5088 32.286 8.89502 H 0 **** 0.053
2560 H 26.8556 33.3951 8.78896 H 0 **** 0.053
2561 H 29.4067 31.1816 8.51786 H 0 **** 0.053
2562 H 28.9919 30.5993 10.1164 H 0 **** 0.053
2563 C1 29.0685 32.913 11.3795 C.3 0 **** 0.268
2564 C2 26.8035 33.9939 11.2975 C.3 0 **** 0.268
2565 N1 28.7154 35.231 12.204 N.2 0 **** 0.856
2566 N2 28.1987 34.0433 11.6923 N.2 0 **** -0.374
2567 N3 29.1861 32.7108 9.92852 N.2 0 **** -0.374
2568 N4 29.6853 33.7046 9.09097 N.2 0 **** 0.856
2569 O1 29.8728 35.2257 12.5575 O.2 0 **** -0.428
2570 O2 27.9586 36.1754 12.2633 O.2 0 **** -0.428
2571 O3 29.7153 33.4677 7.90385 O.2 0 **** -0.428
2572 O4 30.0544 34.7336 9.61362 O.2 0 **** -0.428
2573 H 30.0696 33.114 11.7972 H 0 **** 0.053
2574 H 28.7228 32.0049 11.9033 H 0 **** 0.053
2575 H 26.1717 34.2184 12.1744 H 0 **** 0.053
2576 H 26.5864 34.8007 10.5758 H 0 **** 0.053
2577 C1 30.4285 27.5843 15.3375 C.3 0 **** 0.268
2578 C2 32.6934 26.5034 15.4196 C.3 0 **** 0.268
2579 N1 30.7816 25.2663 14.5131 N.2 0 **** 0.856
2580 N2 31.2982 26.454 15.0248 N.2 0 **** -0.374
2581 N3 30.3109 27.7865 16.7885 N.2 0 **** -0.374
2582 N4 29.8116 26.7927 17.6261 N.2 0 **** 0.856
2583 O1 29.6241 25.2716 14.1596 O.2 0 **** -0.428
2584 O2 31.5383 24.3219 14.4537 O.2 0 **** -0.428
2585 O3 29.7816 27.0296 18.8132 O.2 0 **** -0.428
2586 O4 29.4426 25.7637 17.1034 O.2 0 **** -0.428
2587 H 29.4274 27.3834 14.9198 H 0 **** 0.053
2588 H 30.7742 28.4925 14.8138 H 0 **** 0.053
2589 H 33.3253 26.279 14.5427 H 0 **** 0.053
2590 H 32.9105 25.6966 16.1412 H 0 **** 0.053
2591 C1 32.9871 28.0104 17.4043 C.3 0 **** 0.268
2592 C2 30.7221 29.0913 17.3223 C.3 0 **** 0.268
2593 N1 32.634 30.3284 18.2288 N.2 0 **** 0.856
2594 N2 32.1173 29.1407 17.7171 N.2 0 **** -0.374
2595 N3 33.1047 27.8081 15.9533 N.2 0 **** -0.374
2596 N4 33.6039 28.802 15.1158 N.2 0 **** 0.856
2597 O1 33.7914 30.323 18.5823 O.2 0 **** -0.428
2598 O2 31.8773 31.2727 18.2881 O.2 0 **** -0.428
2599 O3 33.6339 28.565 13.9287 O.2 0 **** -0.428
2600 O4 33.973 29.831 15.6384 O.2 0 **** -0.428
2601 H 33.9882 28.2113 17.822 H 0 **** 0.053
2602 H 32.6414 27.1022 17.9281 H 0 **** 0.053
2603 H 30.0903 29.3157 18.1992 H 0 **** 0.053
2604 H 30.505 29.898 16.6007 H 0 **** 0.053
2605 C1 34.3471 22.6816 21.3623 C.3 0 **** 0.268
2606 C2 36.612 21.6007 21.4444 C.3 0 **** 0.268
2607 N1 34.7002 20.3636 20.5379 N.2 0 **** 0.856
2608 N2 35.2168 21.5513 21.0496 N.2 0 **** -0.374
2609 N3 34.2295 22.8838 22.8133 N.2 0 **** -0.374
2610 N4 33.7302 21.89 23.6509 N.2 0 **** 0.856
2611 O1 33.5427 20.369 20.1844 O.2 0 **** -0.428
2612 O2 35.4569 19.4193 20.4785 O.2 0 **** -0.428
2613 O3 33.7003 22.127 24.838 O.2 0 **** -0.428
2614 O4 33.3612 20.861 23.1282 O.2 0 **** -0.428
2615 H 33.346 22.4807 20.9446 H 0 **** 0.053
2616 H 34.6928 23.5898 20.8386 H 0 **** 0.053
2617 H 37.2439 21.3763 20.5675 H 0 **** 0.053
2618 H 36.8291 20.7939 22.166 H 0 **** 0.053
2619 C1 36.9057 23.1077 23.4291 C.3 0 **** 0.268
2620 C2 34.6408 24.1886 23.3471 C.3 0 **** 0.268
2621 N1 36.5526 25.4257 24.2536 N.2 0 **** 0.856
2622 N2 36.0359 24.238 23.7419 N.2 0 **** -0.374
2623 N3 37.0233 22.9055 21.9781 N.2 0 **** -0.374
2624 N4 37.5225 23.8993 21.1406 N.2 0 **** 0.856
2625 O1 37.7101 25.4203 24.6071 O.2 0 **** -0.428
2626 O2 35.7959 26.37 24.3129 O.2 0 **** -0.428
2627 O3 37.5525 23.6623 19.9535 O.2 0 **** -0.428
2628 O4 37.8916 24.9283 21.6632 O.2 0 **** -0.428
2629 H 37.9068 23.3086 23.8468 H 0 **** 0.053
2630 H 36.56 22.1995 23.9529 H 0 **** 0.053
2631 H 34.0089 24.413 24.224 H 0 **** 0.053
2632 H 34.4237 24.9954 22.6255 H 0 **** 0.053
2633 C1 38.2657 17.7789 27.3871 C.3 0 **** 0.268
2634 C2 40.5306 16.698 27.4692 C.3 0 **** 0.268
2635 N1 38.6188 15.4609 26.5627 N.2 0 **** 0.856
2636 N2 39.1354 16.6486 27.0744 N.2 0 **** -0.374
2637 N3 38.1481 17.9811 28.8381 N.2 0 **** -0.374
2638 N4 37.6488 16.9873 29.6757 N.2 0 **** 0.856
2639 O1 37.4613 15.4663 26.2092 O.2 0 **** -0.428
2640 O2 39.3755 14.5166 26.5033 O.2 0 **** -0.428
2641 O3 37.6189 17.2243 30.8628 O.2 0 **** -0.428
2642 O4 37.2798 15.9583 29.153 O.2 0 **** -0.428
2643 H 37.2646 17.578 26.9694 H 0 **** 0.053
2644 H 38.6114 18.6871 26.8634 H 0 **** 0.053
2645 H 41.1625 16.4736 26.5923 H 0 **** 0.053
2646 H 40.7477 15.8913 28.1908 H 0 **** 0.053
2647 C1 40.8243 18.205 29.4539 C.3 0 **** 0.268
2648 C2 38.5594 19.2859 29.3719 C.3 0 **** 0.268
2649 N1 40.4712 20.523 30.2784 N.2 0 **** 0.856
2650 N2 39.9545 19.3353 29.7667 N.2 0 **** -0.374
2651 N3 40.9419 18.0028 28.0029 N.2 0 **** -0.374
2652 N4 41.4411 18.9966 27.1654 N.2 0 **** 0.856
2653 O1 41.6287 20.5177 30.6319 O.2 0 **** -0.428
2654 O2 39.7145 21.4673 30.3377 O.2 0 **** -0.428
2655 O3 41.4711 18.7596 25.9783 O.2 0 **** -0.428
2656 O4 41.8102 20.0256 27.688 O.2 0 **** -0.428
2657 H 41.8254 18.4059 29.8716 H 0 **** 0.053
2658 H 40.4786 17.2968 29.9777 H 0 **** 0.053
2659 H 37.9275 19.5103 30.2488 H 0 **** 0.053
2660 H 38.3423 20.0927 28.6503 H 0 **** 0.053
2661 C1 13.3282 37.3896 9.31271 C.3 0 **** 0.268
2662 C2 15.5931 36.3087 9.39477 C.3 0 **** 0.268
2663 N1 13.6813 35.0716 8.48825 N.2 0 **** 0.856
2664 N2 14.198 36.2593 8.99997 N.2 0 **** -0.374
2665 N3 13.2106 37.5919 10.7637 N.2 0 **** -0.374
2666 N4 12.7114 36.598 11.6013 N.2 0 **** 0.856
2667 O1 12.5238 35.077 8.13475 O.2 0 **** -0.428
2668 O2 14.438 34.1273 8.42893 O.2 0 **** -0.428
2669 O3 12.6814 36.835 12.7884 O.2 0 **** -0.428
2670 O4 12.3423 35.569 11.0786 O.2 0 **** -0.428
2671 H 12.3271 37.1887 8.89502 H 0 **** 0.053
2672 H 13.6739 38.2978 8.78896 H 0 **** 0.053
2673 H 16.225 36.0843 8.51786 H 0 **** 0.053
2674 H 15.8102 35.502 10.1164 H 0 **** 0.053
2675 C1 15.8868 37.8157 11.3795 C.3 0 **** 0.268
2676 C2 13.6219 38.8966 11.2975 C.3 0 **** 0.268
2677 N1 15.5337 40.1337 12.204 N.2 0 **** 0.856
2678 N2 15.0171 38.946 11.6923 N.2 0 **** -0.374
2679 N3 16.0044 37.6135 9.92852 N.2 0 **** -0.374
2680 N4 16.5037 38.6073 9.09097 N.2 0 **** 0.856
2681 O1 16.6912 40.1284 12.5575 O.2 0 **** -0.428
2682 O2 14.777 41.0781 12.2633 O.2 0 **** -0.428
2683 O3 16.5336 38.3704 7.90385 O.2 0 **** -0.428
2684 O4 16.8727 39.6363 9.61362 O.2 0 **** -0.428
2685 H 16.8879 38.0166 11.7972 H 0 **** 0.053
2686 H 15.5411 36.9075 11.9033 H 0 **** 0.053
2687 H 12.99 39.121 12.1744 H 0 **** 0.053
2688 H 13.4048 39.7034 10.5758 H 0 **** 0.053
2689 C1 17.2468 32.487 15.3375 C.3 0 **** 0.268
2690 C2 19.5117 31.4061 15.4196 C.3 0 **** 0.268
2691 N1 17.5999 30.169 14.5131 N.2 0 **** 0.856
2692 N2 18.1166 31.3567 15.0248 N.2 0 **** -0.374
2693 N3 17.1292 32.6892 16.7885 N.2 0 **** -0.374
2694 N4 16.63 31.6954 17.6261 N.2 0 **** 0.856
2695 O1 16.4424 30.1743 14.1596 O.2 0 **** -0.428
2696 O2 18.3566 29.2246 14.4537 O.2 0 **** -0.428
2697 O3 16.6 31.9323 18.8132 O.2 0 **** -0.428
2698 O4 16.2609 30.6664 17.1034 O.2 0 **** -0.428
2699 H 16.2457 32.286 14.9198 H 0 **** 0.053
2700 H 17.5925 33.3951 14.8138 H 0 **** 0.053
2701 H 20.1436 31.1816 14.5427 H 0 **** 0.053
2702 H 19.7288 30.5993 16.1412 H 0 **** 0.053
2703 C1 19.8054 32.913 17.4043 C.3 0 **** 0.268
2704 C2 17.5405 33.9939 17.3223 C.3 0 **** 0.268
2705 N1 19.4523 35.231 18.2288 N.2 0 **** 0.856
2706 N2 18.9357 34.0433 17.7171 N.2 0 **** -0.374
2707 N3 19.923 32.7108 15.9533 N.2 0 **** -0.374
2708 N4 20.4223 33.7046 15.1158 N.2 0 **** 0.856
2709 O1 20.6098 35.2257 18.5823 O.2 0 **** -0.428
2710 O2 18.6956 36.1754 18.2881 O.2 0 **** -0.428
2711 O3 20.4522 33.4677 13.9287 O.2 0 **** -0.428
2712 O4 20.7913 34.7336 15.6384 O.2 0 **** -0.428
2713 H 20.8065 33.114 17.822 H 0 **** 0.053
2714 H 19.4597 32.0049 17.9281 H 0 **** 0.053
2715 H 16.9086 34.2184 18.1992 H 0 **** 0.053
2716 H 17.3234 34.8007 16.6007 H 0 **** 0.053
2717 C1 21.1654 27.5843 21.3623 C.3 0 **** 0.268
2718 C2 23.4303 26.5034 21.4444 C.3 0 **** 0.268
2719 N1 21.5185 25.2663 20.5379 N.2 0 **** 0.856
2720 N2 22.0352 26.454 21.0496 N.2 0 **** -0.374
2721 N3 21.0478 27.7865 22.8133 N.2 0 **** -0.374
2722 N4 20.5486 26.7927 23.6509 N.2 0 **** 0.856
2723 O1 20.3611 25.2716 20.1844 O.2 0 **** -0.428
2724 O2 22.2752 24.3219 20.4785 O.2 0 **** -0.428
2725 O3 20.5186 27.0296 24.838 O.2 0 **** -0.428
2726 O4 20.1795 25.7637 23.1282 O.2 0 **** -0.428
2727 H 20.1643 27.3834 20.9446 H 0 **** 0.053
2728 H 21.5111 28.4925 20.8386 H 0 **** 0.053
2729 H 24.0622 26.279 20.5675 H 0 **** 0.053
2730 H 23.6475 25.6966 22.166 H 0 **** 0.053
2731 C1 23.724 28.0104 23.4291 C.3 0 **** 0.268
2732 C2 21.4591 29.0913 23.3471 C.3 0 **** 0.268
2733 N1 23.3709 30.3284 24.2536 N.2 0 **** 0.856
2734 N2 22.8543 29.1407 23.7419 N.2 0 **** -0.374
2735 N3 23.8416 27.8081 21.9781 N.2 0 **** -0.374
2736 N4 24.3409 28.802 21.1406 N.2 0 **** 0.856
2737 O1 24.5284 30.323 24.6071 O.2 0 **** -0.428
2738 O2 22.6142 31.2727 24.3129 O.2 0 **** -0.428
2739 O3 24.3709 28.565 19.9535 O.2 0 **** -0.428
2740 O4 24.7099 29.831 21.6632 O.2 0 **** -0.428
2741 H 24.7251 28.2113 23.8468 H 0 **** 0.053
2742 H 23.3783 27.1022 23.9529 H 0 **** 0.053
2743 H 20.8272 29.3157 24.224 H 0 **** 0.053
2744 H 21.242 29.898 22.6255 H 0 **** 0.053
2745 C1 25.084 22.6816 27.3871 C.3 0 **** 0.268
2746 C2 27.349 21.6007 27.4692 C.3 0 **** 0.268
2747 N1 25.4371 20.3636 26.5627 N.2 0 **** 0.856
2748 N2 25.9538 21.5513 27.0744 N.2 0 **** -0.374
2749 N3 24.9664 22.8838 28.8381 N.2 0 **** -0.374
2750 N4 24.4672 21.89 29.6757 N.2 0 **** 0.856
2751 O1 24.2797 20.369 26.2092 O.2 0 **** -0.428
2752 O2 26.1939 19.4193 26.5033 O.2 0 **** -0.428
2753 O3 24.4372 22.127 30.8628 O.2 0 **** -0.428
2754 O4 24.0981 20.861 29.153 O.2 0 **** -0.428
2755 H 24.0829 22.4807 26.9694 H 0 **** 0.053
2756 H 25.4297 23.5898 26.8634 H 0 **** 0.053
2757 H 27.9808 21.3763 26.5923 H 0 **** 0.053
2758 H 27.5661 20.7939 28.1908 H 0 **** 0.053
2759 C1 27.6426 23.1077 29.4539 C.3 0 **** 0.268
2760 C2 25.3777 24.1886 29.3719 C.3 0 **** 0.268
2761 N1 27.2895 25.4257 30.2784 N.2 0 **** 0.856
2762 N2 26.7729 24.238 29.7667 N.2 0 **** -0.374
2763 N3 27.7602 22.9055 28.0029 N.2 0 **** -0.374
2764 N4 28.2595 23.8993 27.1654 N.2 0 **** 0.856
2765 O1 28.447 25.4203 30.6319 O.2 0 **** -0.428
2766 O2 26.5328 26.37 30.3377 O.2 0 **** -0.428
2767 O3 28.2895 23.6623 25.9783 O.2 0 **** -0.428
2768 O4 28.6286 24.9283 27.688 O.2 0 **** -0.428
2769 H 28.6437 23.3086 29.8716 H 0 **** 0.053
2770 H 27.2969 22.1995 29.9777 H 0 **** 0.053
2771 H 24.7458 24.413 30.2488 H 0 **** 0.053
2772 H 25.1606 24.9954 28.6503 H 0 **** 0.053
2773 C1 4.06513 37.3896 15.3375 C.3 0 **** 0.268
2774 C2 6.33008 36.3087 15.4196 C.3 0 **** 0.268
2775 N1 4.41824 35.0716 14.5131 N.2 0 **** 0.856
2776 N2 4.93489 36.2593 15.0248 N.2 0 **** -0.374
2777 N3 3.94754 37.5919 16.7885 N.2 0 **** -0.374
2778 N4 3.4483 36.598 17.6261 N.2 0 **** 0.856
2779 O1 3.26078 35.077 14.1596 O.2 0 **** -0.428
2780 O2 5.17497 34.1273 14.4537 O.2 0 **** -0.428
2781 O3 3.41832 36.835 18.8132 O.2 0 **** -0.428
2782 O4 3.07923 35.569 17.1034 O.2 0 **** -0.428
2783 H 3.06407 37.1887 14.9198 H 0 **** 0.053
2784 H 4.41084 38.2978 14.8138 H 0 **** 0.053
2785 H 6.96196 36.0843 14.5427 H 0 **** 0.053
2786 H 6.54718 35.502 16.1412 H 0 **** 0.053
2787 C1 6.62377 37.8157 17.4043 C.3 0 **** 0.268
2788 C2 4.35882 38.8966 17.3223 C.3 0 **** 0.268
2789 N1 6.27066 40.1337 18.2288 N.2 0 **** 0.856
2790 N2 5.754 38.946 17.7171 N.2 0 **** -0.374
2791 N3 6.74136 37.6135 15.9533 N.2 0 **** -0.374
2792 N4 7.2406 38.6073 15.1158 N.2 0 **** 0.856
2793 O1 7.42812 40.1284 18.5823 O.2 0 **** -0.428
2794 O2 5.51393 41.0781 18.2881 O.2 0 **** -0.428
2795 O3 7.27058 38.3704 13.9287 O.2 0 **** -0.428
2796 O4 7.60967 39.6363 15.6384 O.2 0 **** -0.428
2797 H 7.62483 38.0166 17.822 H 0 **** 0.053
2798 H 6.27806 36.9075 17.9281 H 0 **** 0.053
2799 H 3.72694 39.121 18.1992 H 0 **** 0.053
2800 H 4.14172 39.7034 16.6007 H 0 **** 0.053
2801 C1 7.98374 32.487 21.3623 C.3 0 **** 0.268
2802 C2 10.2487 31.4061 21.4444 C.3 0 **** 0.268
2803 N1 8.33684 30.169 20.5379 N.2 0 **** 0.856
2804 N2 8.8535 31.3567 21.0496 N.2 0 **** -0.374
2805 N3 7.86614 32.6892 22.8133 N.2 0 **** -0.374
2806 N4 7.36691 31.6954 23.6509 N.2 0 **** 0.856
2807 O1 7.17939 30.1743 20.1844 O.2 0 **** -0.428
2808 O2 9.09358 29.2246 20.4785 O.2 0 **** -0.428
2809 O3 7.33692 31.9323 24.838 O.2 0 **** -0.428
2810 O4 6.99783 30.6664 23.1282 O.2 0 **** -0.428
2811 H 6.98267 32.286 20.9446 H 0 **** 0.053
2812 H 8.32945 33.3951 20.8386 H 0 **** 0.053
2813 H 10.8806 31.1816 20.5675 H 0 **** 0.053
2814 H 10.4658 30.5993 22.166 H 0 **** 0.053
2815 C1 10.5424 32.913 23.4291 C.3 0 **** 0.268
2816 C2 8.27743 33.9939 23.3471 C.3 0 **** 0.268
2817 N1 10.1893 35.231 24.2536 N.2 0 **** 0.856
2818 N2 9.67261 34.0433 23.7419 N.2 0 **** -0.374
2819 N3 10.66 32.7108 21.9781 N.2 0 **** -0.374
2820 N4 11.1592 33.7046 21.1406 N.2 0 **** 0.856
2821 O1 11.3467 35.2257 24.6071 O.2 0 **** -0.428
2822 O2 9.43253 36.1754 24.3129 O.2 0 **** -0.428
2823 O3 11.1892 33.4677 19.9535 O.2 0 **** -0.428
2824 O4 11.5283 34.7336 21.6632 O.2 0 **** -0.428
2825 H 11.5434 33.114 23.8468 H 0 **** 0.053
2826 H 10.1967 32.0049 23.9529 H 0 **** 0.053
2827 H 7.64555 34.2184 24.224 H 0 **** 0.053
2828 H 8.06032 34.8007 22.6255 H 0 **** 0.053
2829 C1 11.9023 27.5843 27.3871 C.3 0 **** 0.268
2830 C2 14.1673 26.5034 27.4692 C.3 0 **** 0.268
2831 N1 12.2555 25.2663 26.5627 N.2 0 **** 0.856
2832 N2 12.7721 26.454 27.0744 N.2 0 **** -0.374
2833 N3 11.7848 27.7865 28.8381 N.2 0 **** -0.374
2834 N4 11.2855 26.7927 29.6757 N.2 0 **** 0.856
2835 O1 11.098 25.2716 26.2092 O.2 0 **** -0.428
2836 O2 13.0122 24.3219 26.5033 O.2 0 **** -0.428
2837 O3 11.2555 27.0296 30.8628 O.2 0 **** -0.428
2838 O4 10.9164 25.7637 29.153 O.2 0 **** -0.428
2839 H 10.9013 27.3834 26.9694 H 0 **** 0.053
2840 H 12.2481 28.4925 26.8634 H 0 **** 0.053
2841 H 14.7992 26.279 26.5923 H 0 **** 0.053
2842 H 14.3844 25.6966 28.1908 H 0 **** 0.053
2843 C1 14.461 28.0104 29.4539 C.3 0 **** 0.268
2844 C2 12.196 29.0913 29.3719 C.3 0 **** 0.268
2845 N1 14.1079 30.3284 30.2784 N.2 0 **** 0.856
2846 N2 13.5912 29.1407 29.7667 N.2 0 **** -0.374
2847 N3 14.5786 27.8081 28.0029 N.2 0 **** -0.374
2848 N4 15.0778 28.802 27.1654 N.2 0 **** 0.856
2849 O1 15.2653 30.323 30.6319 O.2 0 **** -0.428
2850 O2 13.3511 31.2727 30.3377 O.2 0 **** -0.428
2851 O3 15.1078 28.565 25.9783 O.2 0 **** -0.428
2852 O4 15.4469 29.831 27.688 O.2 0 **** -0.428
2853 H 15.462 28.2113 29.8716 H 0 **** 0.053
2854 H 14.1153 27.1022 29.9777 H 0 **** 0.053
2855 H 11.5642 29.3157 30.2488 H 0 **** 0.053
2856 H 11.9789 29.898 28.6503 H 0 **** 0.053
2857 C1 -1.27932 32.487 27.3871 C.3 0 **** 0.268
2858 C2 0.985628 31.4061 27.4692 C.3 0 **** 0.268
2859 N1 -0.926213 30.169 26.5627 N.2 0 **** 0.856
2860 N2 -0.409555 31.3567 27.0744 N.2 0 **** -0.374
2861 N3 -1.39691 32.6892 28.8381 N.2 0 **** -0.374
2862 N4 -1.89615 31.6954 29.6757 N.2 0 **** 0.856
2863 O1 -2.08367 30.1743 26.2092 O.2 0 **** -0.428
2864 O2 -0.169476 29.2246 26.5033 O.2 0 **** -0.428
2865 O3 -1.92613 31.9323 30.8628 O.2 0 **** -0.428
2866 O4 -2.26522 30.6664 29.153 O.2 0 **** -0.428
2867 H -2.28038 32.286 26.9694 H 0 **** 0.053
2868 H -0.93361 33.3951 26.8634 H 0 **** 0.053
2869 H 1.61751 31.1816 26.5923 H 0 **** 0.053
2870 H 1.20273 30.5993 28.1908 H 0 **** 0.053
2871 C1 1.27932 32.913 29.4539 C.3 0 **** 0.268
2872 C2 -0.985628 33.9939 29.3719 C.3 0 **** 0.268
2873 N1 0.926213 35.231 30.2784 N.2 0 **** 0.856
2874 N2 0.409555 34.0433 29.7667 N.2 0 **** -0.374
2875 N3 1.39691 32.7108 28.0029 N.2 0 **** -0.374
2876 N4 1.89615 33.7046 27.1654 N.2 0 **** 0.856
2877 O1 2.08367 35.2257 30.6319 O.2 0 **** -0.428
2878 O2 0.169476 36.1754 30.3377 O.2 0 **** -0.428
2879 O3 1.92613 33.4677 25.9783 O.2 0 **** -0.428
2880 O4 2.26522 34.7336 27.688 O.2 0 **** -0.428
2881 H 2.28038 33.114 29.8716 H 0 **** 0.053
2882 H 0.93361 32.0049 29.9777 H 0 **** 0.053
2883 H -1.61751 34.2184 30.2488 H 0 **** 0.053
2884 H -1.20273 34.8007 28.6503 H 0 **** 0.053
2885 C1 62.1362 29.2216 3.2879 C.3 0 **** 0.268
2886 C2 64.4012 28.1407 3.36997 C.3 0 **** 0.268
2887 N1 62.4893 26.9036 2.46344 N.2 0 **** 0.856
2888 N2 63.006 28.0913 2.97516 N.2 0 **** -0.374
2889 N3 62.0186 29.4238 4.7389 N.2 0 **** -0.374
2890 N4 61.5194 28.43 5.57645 N.2 0 **** 0.856
2891 O1 61.3319 26.909 2.10995 O.2 0 **** -0.428
2892 O2 63.2461 25.9593 2.40412 O.2 0 **** -0.428
2893 O3 61.4894 28.667 6.76357 O.2 0 **** -0.428
2894 O4 61.1503 27.401 5.0538 O.2 0 **** -0.428
2895 H 61.1352 29.0207 2.87022 H 0 **** 0.053
2896 H 62.4819 30.1298 2.76416 H 0 **** 0.053
2897 H 65.0331 27.9163 2.49306 H 0 **** 0.053
2898 H 64.6183 27.3339 4.09157 H 0 **** 0.053
2899 C1 64.6949 29.6477 5.35471 C.3 0 **** 0.268
2900 C2 62.4299 30.7286 5.27264 C.3 0 **** 0.268
2901 N1 64.3418 31.9657 6.17917 N.2 0 **** 0.856
2902 N2 63.8251 30.778 5.66745 N.2 0 **** -0.374
2903 N3 64.8125 29.4455 3.90371 N.2 0 **** -0.374
2904 N4 65.3117 30.4393 3.06617 N.2 0 **** 0.856
2905 O1 65.4992 31.9603 6.53267 O.2 0 **** -0.428
2906 O2 63.585 32.91 6.23849 O.2 0 **** -0.428
2907 O3 65.3417 30.2023 1.87904 O.2 0 **** -0.428
2908 O4 65.6808 31.4683 3.58881 O.2 0 **** -0.428
2909 H 65.6959 29.8486 5.77239 H 0 **** 0.053
2910 H 64.3492 28.7395 5.87846 H 0 **** 0.053
2911 H 61.798 30.953 6.14956 H 0 **** 0.053
2912 H 62.2128 31.5354 4.55104 H 0 **** 0.053
2913 C1 48.9546 34.1243 3.2879 C.3 0 **** 0.268
2914 C2 51.2195 33.0434 3.36997 C.3 0 **** 0.268
2915 N1 49.3077 31.8063 2.46344 N.2 0 **** 0.856
2916 N2 49.8243 32.994 2.97516 N.2 0 **** -0.374
2917 N3 48.837 34.3265 4.7389 N.2 0 **** -0.374
2918 N4 48.3377 33.3327 5.57645 N.2 0 **** 0.856
2919 O1 48.1502 31.8116 2.10995 O.2 0 **** -0.428
2920 O2 50.0644 30.8619 2.40412 O.2 0 **** -0.428
2921 O3 48.3078 33.5696 6.76357 O.2 0 **** -0.428
2922 O4 47.9687 32.3037 5.0538 O.2 0 **** -0.428
2923 H 47.9535 33.9234 2.87022 H 0 **** 0.053
2924 H 49.3003 35.0325 2.76416 H 0 **** 0.053
2925 H 51.8514 32.819 2.49306 H 0 **** 0.053
2926 H 51.4366 32.2366 4.09157 H 0 **** 0.053
2927 C1 51.5132 34.5504 5.35471 C.3 0 **** 0.268
2928 C2 49.2483 35.6313 5.27264 C.3 0 **** 0.268
2929 N1 51.1601 36.8684 6.17917 N.2 0 **** 0.856
2930 N2 50.6434 35.6807 5.66745 N.2 0 **** -0.374
2931 N3 51.6308 34.3481 3.90371 N.2 0 **** -0.374
2932 N4 52.13 35.342 3.06617 N.2 0 **** 0.856
2933 O1 52.3176 36.863 6.53267 O.2 0 **** -0.428
2934 O2 50.4034 37.8127 6.23849 O.2 0 **** -0.428
2935 O3 52.16 35.105 1.87904 O.2 0 **** -0.428
2936 O4 52.4991 36.371 3.58881 O.2 0 **** -0.428
2937 H 52.5143 34.7513 5.77239 H 0 **** 0.053
2938 H 51.1675 33.6422 5.87846 H 0 **** 0.053
2939 H 48.6164 35.8557 6.14956 H 0 **** 0.053
2940 H 49.0312 36.438 4.55104 H 0 **** 0.053
2941 C1 52.8732 29.2216 9.31271 C.3 0 **** 0.268
2942 C2 55.1381 28.1407 9.39477 C.3 0 **** 0.268
2943 N1 53.2263 26.9036 8.48825 N.2 0 **** 0.856
2944 N2 53.7429 28.0913 8.99997 N.2 0 **** -0.374
2945 N3 52.7556 29.4238 10.7637 N.2 0 **** -0.374
2946 N4 52.2564 28.43 11.6013 N.2 0 **** 0.856
2947 O1 52.0688 26.909 8.13475 O.2 0 **** -0.428
2948 O2 53.983 25.9593 8.42893 O.2 0 **** -0.428
2949 O3 52.2264 28.667 12.7884 O.2 0 **** -0.428
2950 O4 51.8873 27.401 11.0786 O.2 0 **** -0.428
2951 H 51.8721 29.0207 8.89502 H 0 **** 0.053
2952 H 53.2189 30.1298 8.78896 H 0 **** 0.053
2953 H 55.77 27.9163 8.51786 H 0 **** 0.053
2954 H 55.3552 27.3339 10.1164 H 0 **** 0.053
2955 C1 55.4318 29.6477 11.3795 C.3 0 **** 0.268
2956 C2 53.1669 30.7286 11.2975 C.3 0 **** 0.268
2957 N1 55.0787 31.9657 12.204 N.2 0 **** 0.856
2958 N2 54.5621 30.778 11.6923 N.2 0 **** -0.374
2959 N3 55.5494 29.4455 9.92852 N.2 0 **** -0.374
2960 N4 56.0486 30.4393 9.09097 N.2 0 **** 0.856
2961 O1 56.2362 31.9603 12.5575 O.2 0 **** -0.428
2962 O2 54.322 32.91 12.2633 O.2 0 **** -0.428
2963 O3 56.0786 30.2023 7.90385 O.2 0 **** -0.428
2964 O4 56.4177 31.4683 9.61362 O.2 0 **** -0.428
2965 H 56.4329 29.8486 11.7972 H 0 **** 0.053
2966 H 55.0861 28.7395 11.9033 H 0 **** 0.053
2967 H 52.535 30.953 12.1744 H 0 **** 0.053
2968 H 52.9498 31.5354 10.5758 H 0 **** 0.053
2969 C1 56.7918 24.3189 15.3375 C.3 0 **** 0.268
2970 C2 59.0567 23.238 15.4196 C.3 0 **** 0.268
2971 N1 57.1449 22.0009 14.5131 N.2 0 **** 0.856
2972 N2 57.6616 23.1886 15.0248 N.2 0 **** -0.374
2973 N3 56.6742 24.5211 16.7885 N.2 0 **** -0.374
2974 N4 56.175 23.5273 17.6261 N.2 0 **** 0.856
2975 O1 55.9874 22.0063 14.1596 O.2 0 **** -0.428
2976 O2 57.9016 21.0566 14.4537 O.2 0 **** -0.428
2977 O3 56.145 23.7643 18.8132 O.2 0 **** -0.428
2978 O4 55.8059 22.4983 17.1034 O.2 0 **** -0.428
2979 H 55.7907 24.118 14.9198 H 0 **** 0.053
2980 H 57.1375 25.2271 14.8138 H 0 **** 0.053
2981 H 59.6886 23.0136 14.5427 H 0 **** 0.053
2982 H 59.2738 22.4313 16.1412 H 0 **** 0.053
2983 C1 59.3504 24.745 17.4043 C.3 0 **** 0.268
2984 C2 57.0855 25.8259 17.3223 C.3 0 **** 0.268
2985 N1 58.9973 27.063 18.2288 N.2 0 **** 0.856
2986 N2 58.4807 25.8753 17.7171 N.2 0 **** -0.374
2987 N3 59.468 24.5428 15.9533 N.2 0 **** -0.374
2988 N4 59.9673 25.5366 15.1158 N.2 0 **** 0.856
2989 O1 60.1548 27.0577 18.5823 O.2 0 **** -0.428
2990 O2 58.2406 28.0073 18.2881 O.2 0 **** -0.428
2991 O3 59.9972 25.2996 13.9287 O.2 0 **** -0.428
2992 O4 60.3363 26.5656 15.6384 O.2 0 **** -0.428
2993 H 60.3515 24.9459 17.822 H 0 **** 0.053
2994 H 59.0047 23.8368 17.9281 H 0 **** 0.053
2995 H 56.4536 26.0503 18.1992 H 0 **** 0.053
2996 H 56.8684 26.6327 16.6007 H 0 **** 0.053
2997 C1 60.7104 19.4163 21.3623 C.3 0 **** 0.268
2998 C2 62.9753 18.3354 21.4444 C.3 0 **** 0.268
2999 N1 61.0635 17.0983 20.5379 N.2 0 **** 0.856
3000 N2 61.5802 18.2859 21.0496 N.2 0 **** -0.374
3001 N3 60.5928 19.6185 22.8133 N.2 0 **** -0.374
3002 N4 60.0936 18.6247 23.6509 N.2 0 **** 0.856
3003 O1 59.906 17.1036 20.1844 O.2 0 **** -0.428
3004 O2 61.8202 16.1539 20.4785 O.2 0 **** -0.428
3005 O3 60.0636 18.8616 24.838 O.2 0 **** -0.428
3006 O4 59.7245 17.5957 23.1282 O.2 0 **** -0.428
3007 H 59.7093 19.2153 20.9446 H 0 **** 0.053
3008 H 61.0561 20.3244 20.8386 H 0 **** 0.053
3009 H 63.6072 18.1109 20.5675 H 0 **** 0.053
3010 H 63.1924 17.5286 22.166 H 0 **** 0.053
3011 C1 63.269 19.8423 23.4291 C.3 0 **** 0.268
3012 C2 61.0041 20.9232 23.3471 C.3 0 **** 0.268
3013 N1 62.9159 22.1603 24.2536 N.2 0 **** 0.856
3014 N2 62.3993 20.9726 23.7419 N.2 0 **** -0.374
3015 N3 63.3866 19.6401 21.9781 N.2 0 **** -0.374
3016 N4 63.8859 20.6339 21.1406 N.2 0 **** 0.856
3017 O1 64.0734 22.155 24.6071 O.2 0 **** -0.428
3018 O2 62.1592 23.1047 24.3129 O.2 0 **** -0.428
3019 O3 63.9158 20.397 19.9535 O.2 0 **** -0.428
3020 O4 64.2549 21.6629 21.6632 O.2 0 **** -0.428
3021 H 64.2701 20.0433 23.8468 H 0 **** 0.053
3022 H 62.9233 18.9342 23.9529 H 0 **** 0.053
3023 H 60.3722 21.1477 24.224 H 0 **** 0.053
3024 H 60.787 21.73 22.6255 H 0 **** 0.053
3025 C1 35.7729 -0.213 3.2879 C.3 0 **** 0.268
3026 C2 38.0379 -1.2939 3.36997 C.3 0 **** 0.268
3027 N1 36.126 -2.531 2.46344 N.2 0 **** 0.856
3028 N2 36.6427 -1.3433 2.97516 N.2 0 **** -0.374
3029 N3 35.6553 -0.0108 4.7389 N.2 0 **** -0.374
3030 N4 35.1561 -1.0046 5.57645 N.2 0 **** 0.856
3031 O1 34.9686 -2.5257 2.10995 O.2 0 **** -0.428
3032 O2 36.8828 -3.4754 2.40412 O.2 0 **** -0.428
3033 O3 35.1261 -0.7677 6.76357 O.2 0 **** -0.428
3034 O4 34.787 -2.0336 5.0538 O.2 0 **** -0.428
3035 H 34.7718 -0.414 2.87022 H 0 **** 0.053
3036 H 36.1186 0.6951 2.76416 H 0 **** 0.053
3037 H 38.6697 -1.5184 2.49306 H 0 **** 0.053
3038 H 38.255 -2.1007 4.09157 H 0 **** 0.053
3039 C1 38.3315 0.213 5.35471 C.3 0 **** 0.268
3040 C2 36.0666 1.2939 5.27264 C.3 0 **** 0.268
3041 N1 37.9784 2.531 6.17917 N.2 0 **** 0.856
3042 N2 37.4618 1.3433 5.66745 N.2 0 **** -0.374
3043 N3 38.4491 0.0108 3.90371 N.2 0 **** -0.374
3044 N4 38.9484 1.0046 3.06617 N.2 0 **** 0.856
3045 O1 39.1359 2.5257 6.53267 O.2 0 **** -0.428
3046 O2 37.2217 3.4754 6.23849 O.2 0 **** -0.428
3047 O3 38.9784 0.7677 1.87904 O.2 0 **** -0.428
3048 O4 39.3174 2.0336 3.58881 O.2 0 **** -0.428
3049 H 39.3326 0.414 5.77239 H 0 **** 0.053
3050 H 37.9858 -0.6951 5.87846 H 0 **** 0.053
3051 H 35.4347 1.5184 6.14956 H 0 **** 0.053
3052 H 35.8495 2.1007 4.55104 H 0 **** 0.053
3053 C1 39.6915 34.1243 9.31271 C.3 0 **** 0.268
3054 C2 41.9565 33.0434 9.39477 C.3 0 **** 0.268
3055 N1 40.0446 31.8063 8.48825 N.2 0 **** 0.856
3056 N2 40.5613 32.994 8.99997 N.2 0 **** -0.374
3057 N3 39.5739 34.3265 10.7637 N.2 0 **** -0.374
3058 N4 39.0747 33.3327 11.6013 N.2 0 **** 0.856
3059 O1 38.8872 31.8116 8.13475 O.2 0 **** -0.428
3060 O2 40.8014 30.8619 8.42893 O.2 0 **** -0.428
3061 O3 39.0447 33.5696 12.7884 O.2 0 **** -0.428
3062 O4 38.7056 32.3037 11.0786 O.2 0 **** -0.428
3063 H 38.6905 33.9234 8.89502 H 0 **** 0.053
3064 H 40.0372 35.0325 8.78896 H 0 **** 0.053
3065 H 42.5883 32.819 8.51786 H 0 **** 0.053
3066 H 42.1736 32.2366 10.1164 H 0 **** 0.053
3067 C1 42.2502 34.5504 11.3795 C.3 0 **** 0.268
3068 C2 39.9852 35.6313 11.2975 C.3 0 **** 0.268
3069 N1 41.897 36.8684 12.204 N.2 0 **** 0.856
3070 N2 41.3804 35.6807 11.6923 N.2 0 **** -0.374
3071 N3 42.3677 34.3481 9.92852 N.2 0 **** -0.374
3072 N4 42.867 35.342 9.09097 N.2 0 **** 0.856
3073 O1 43.0545 36.863 12.5575 O.2 0 **** -0.428
3074 O2 41.1403 37.8127 12.2633 O.2 0 **** -0.428
3075 O3 42.897 35.105 7.90385 O.2 0 **** -0.428
3076 O4 43.2361 36.371 9.61362 O.2 0 **** -0.428
3077 H 43.2512 34.7513 11.7972 H 0 **** 0.053
3078 H 41.9044 33.6422 11.9033 H 0 **** 0.053
3079 H 39.3533 35.8557 12.1744 H 0 **** 0.053
3080 H 39.7681 36.438 10.5758 H 0 **** 0.053
3081 C1 43.6101 29.2216 15.3375 C.3 0 **** 0.268
3082 C2 45.8751 28.1407 15.4196 C.3 0 **** 0.268
3083 N1 43.9632 26.9036 14.5131 N.2 0 **** 0.856
3084 N2 44.4799 28.0913 15.0248 N.2 0 **** -0.374
3085 N3 43.4925 29.4238 16.7885 N.2 0 **** -0.374
3086 N4 42.9933 28.43 17.6261 N.2 0 **** 0.856
3087 O1 42.8058 26.909 14.1596 O.2 0 **** -0.428
3088 O2 44.72 25.9593 14.4537 O.2 0 **** -0.428
3089 O3 42.9633 28.667 18.8132 O.2 0 **** -0.428
3090 O4 42.6242 27.401 17.1034 O.2 0 **** -0.428
3091 H 42.6091 29.0207 14.9198 H 0 **** 0.053
3092 H 43.9558 30.1298 14.8138 H 0 **** 0.053
3093 H 46.5069 27.9163 14.5427 H 0 **** 0.053
3094 H 46.0922 27.3339 16.1412 H 0 **** 0.053
3095 C1 46.1688 29.6477 17.4043 C.3 0 **** 0.268
3096 C2 43.9038 30.7286 17.3223 C.3 0 **** 0.268
3097 N1 45.8157 31.9657 18.2288 N.2 0 **** 0.856
3098 N2 45.299 30.778 17.7171 N.2 0 **** -0.374
3099 N3 46.2864 29.4455 15.9533 N.2 0 **** -0.374
3100 N4 46.7856 30.4393 15.1158 N.2 0 **** 0.856
3101 O1 46.9731 31.9603 18.5823 O.2 0 **** -0.428
3102 O2 45.0589 32.91 18.2881 O.2 0 **** -0.428
3103 O3 46.8156 30.2023 13.9287 O.2 0 **** -0.428
3104 O4 47.1547 31.4683 15.6384 O.2 0 **** -0.428
3105 H 47.1698 29.8486 17.822 H 0 **** 0.053
3106 H 45.8231 28.7395 17.9281 H 0 **** 0.053
3107 H 43.2719 30.953 18.1992 H 0 **** 0.053
3108 H 43.6867 31.5354 16.6007 H 0 **** 0.053
3109 C1 47.5287 24.3189 21.3623 C.3 0 **** 0.268
3110 C2 49.7937 23.238 21.4444 C.3 0 **** 0.268
3111 N1 47.8818 22.0009 20.5379 N.2 0 **** 0.856
3112 N2 48.3985 23.1886 21.0496 N.2 0 **** -0.374
3113 N3 47.4111 24.5211 22.8133 N.2 0 **** -0.374
3114 N4 46.9119 23.5273 23.6509 N.2 0 **** 0.856
3115 O1 46.7244 22.0063 20.1844 O.2 0 **** -0.428
3116 O2 48.6386 21.0566 20.4785 O.2 0 **** -0.428
3117 O3 46.8819 23.7643 24.838 O.2 0 **** -0.428
3118 O4 46.5428 22.4983 23.1282 O.2 0 **** -0.428
3119 H 46.5277 24.118 20.9446 H 0 **** 0.053
3120 H 47.8744 25.2271 20.8386 H 0 **** 0.053
3121 H 50.4256 23.0136 20.5675 H 0 **** 0.053
3122 H 50.0108 22.4313 22.166 H 0 **** 0.053
3123 C1 50.0874 24.745 23.4291 C.3 0 **** 0.268
3124 C2 47.8224 25.8259 23.3471 C.3 0 **** 0.268
3125 N1 49.7343 27.063 24.2536 N.2 0 **** 0.856
3126 N2 49.2176 25.8753 23.7419 N.2 0 **** -0.374
3127 N3 50.205 24.5428 21.9781 N.2 0 **** -0.374
3128 N4 50.7042 25.5366 21.1406 N.2 0 **** 0.856
3129 O1 50.8917 27.0577 24.6071 O.2 0 **** -0.428
3130 O2 48.9775 28.0073 24.3129 O.2 0 **** -0.428
3131 O3 50.7342 25.2996 19.9535 O.2 0 **** -0.428
3132 O4 51.0733 26.5656 21.6632 O.2 0 **** -0.428
3133 H 51.0884 24.9459 23.8468 H 0 **** 0.053
3134 H 49.7417 23.8368 23.9529 H 0 **** 0.053
3135 H 47.1905 26.0503 24.224 H 0 **** 0.053
3136 H 47.6053 26.6327 22.6255 H 0 **** 0.053
3137 C1 51.4473 19.4163 27.3871 C.3 0 **** 0.268
3138 C2 53.7123 18.3354 27.4692 C.3 0 **** 0.268
3139 N1 51.8004 17.0983 26.5627 N.2 0 **** 0.856
3140 N2 52.3171 18.2859 27.0744 N.2 0 **** -0.374
3141 N3 51.3297 19.6185 28.8381 N.2 0 **** -0.374
3142 N4 50.8305 18.6247 29.6757 N.2 0 **** 0.856
3143 O1 50.643 17.1036 26.2092 O.2 0 **** -0.428
3144 O2 52.5572 16.1539 26.5033 O.2 0 **** -0.428
3145 O3 50.8005 18.8616 30.8628 O.2 0 **** -0.428
3146 O4 50.4614 17.5957 29.153 O.2 0 **** -0.428
3147 H 50.4463 19.2153 26.9694 H 0 **** 0.053
3148 H 51.793 20.3244 26.8634 H 0 **** 0.053
3149 H 54.3442 18.1109 26.5923 H 0 **** 0.053
3150 H 53.9294 17.5286 28.1908 H 0 **** 0.053
3151 C1 54.006 19.8423 29.4539 C.3 0 **** 0.268
3152 C2 51.741 20.9232 29.3719 C.3 0 **** 0.268
3153 N1 53.6529 22.1603 30.2784 N.2 0 **** 0.856
3154 N2 53.1362 20.9726 29.7667 N.2 0 **** -0.374
3155 N3 54.1236 19.6401 28.0029 N.2 0 **** -0.374
3156 N4 54.6228 20.6339 27.1654 N.2 0 **** 0.856
3157 O1 54.8103 22.155 30.6319 O.2 0 **** -0.428
3158 O2 52.8961 23.1047 30.3377 O.2 0 **** -0.428
3159 O3 54.6528 20.397 25.9783 O.2 0 **** -0.428
3160 O4 54.9919 21.6629 27.688 O.2 0 **** -0.428
3161 H 55.007 20.0433 29.8716 H 0 **** 0.053
3162 H 53.6603 18.9342 29.9777 H 0 **** 0.053
3163 H 51.1091 21.1477 30.2488 H 0 **** 0.053
3164 H 51.5239 21.73 28.6503 H 0 **** 0.053
3165 C1 26.5099 -0.213 9.31271 C.3 0 **** 0.268
3166 C2 28.7748 -1.2939 9.39477 C.3 0 **** 0.268
3167 N1 26.863 -2.531 8.48825 N.2 0 **** 0.856
3168 N2 27.3796 -1.3433 8.99997 N.2 0 **** -0.374
3169 N3 26.3923 -0.0108 10.7637 N.2 0 **** -0.374
3170 N4 25.893 -1.0046 11.6013 N.2 0 **** 0.856
3171 O1 25.7055 -2.5257 8.13475 O.2 0 **** -0.428
3172 O2 27.6197 -3.4754 8.42893 O.2 0 **** -0.428
3173 O3 25.863 -0.7677 12.7884 O.2 0 **** -0.428
3174 O4 25.5239 -2.0336 11.0786 O.2 0 **** -0.428
3175 H 25.5088 -0.414 8.89502 H 0 **** 0.053
3176 H 26.8556 0.6951 8.78896 H 0 **** 0.053
3177 H 29.4067 -1.5184 8.51786 H 0 **** 0.053
3178 H 28.9919 -2.1007 10.1164 H 0 **** 0.053
3179 C1 29.0685 0.213 11.3795 C.3 0 **** 0.268
3180 C2 26.8035 1.2939 11.2975 C.3 0 **** 0.268
3181 N1 28.7154 2.531 12.204 N.2 0 **** 0.856
3182 N2 28.1987 1.3433 11.6923 N.2 0 **** -0.374
3183 N3 29.1861 0.0108 9.92852 N.2 0 **** -0.374
3184 N4 29.6853 1.0046 9.09097 N.2 0 **** 0.856
3185 O1 29.8728 2.5257 12.5575 O.2 0 **** -0.428
3186 O2 27.9586 3.4754 12.2633 O.2 0 **** -0.428
3187 O3 29.7153 0.7677 7.90385 O.2 0 **** -0.428
3188 O4 30.0544 2.0336 9.61362 O.2 0 **** -0.428
3189 H 30.0696 0.414 11.7972 H 0 **** 0.053
3190 H 28.7228 -0.6951 11.9033 H 0 **** 0.053
3191 H 26.1717 1.5184 12.1744 H 0 **** 0.053
3192 H 26.5864 2.1007 10.5758 H 0 **** 0.053
3193 C1 30.4285 34.1243 15.3375 C.3 0 **** 0.268
3194 C2 32.6934 33.0434 15.4196 C.3 0 **** 0.268
3195 N1 30.7816 31.8063 14.5131 N.2 0 **** 0.856
3196 N2 31.2982 32.994 15.0248 N.2 0 **** -0.374
3197 N3 30.3109 34.3265 16.7885 N.2 0 **** -0.374
3198 N4 29.8116 33.3327 17.6261 N.2 0 **** 0.856
3199 O1 29.6241 31.8116 14.1596 O.2 0 **** -0.428
3200 O2 31.5383 30.8619 14.4537 O.2 0 **** -0.428
3201 O3 29.7816 33.5696 18.8132 O.2 0 **** -0.428
3202 O4 29.4426 32.3037 17.1034 O.2 0 **** -0.428
3203 H 29.4274 33.9234 14.9198 H 0 **** 0.053
3204 H 30.7742 35.0325 14.8138 H 0 **** 0.053
3205 H 33.3253 32.819 14.5427 H 0 **** 0.053
3206 H 32.9105 32.2366 16.1412 H 0 **** 0.053
3207 C1 32.9871 34.5504 17.4043 C.3 0 **** 0.268
3208 C2 30.7221 35.6313 17.3223 C.3 0 **** 0.268
3209 N1 32.634 36.8684 18.2288 N.2 0 **** 0.856
3210 N2 32.1173 35.6807 17.7171 N.2 0 **** -0.374
3211 N3 33.1047 34.3481 15.9533 N.2 0 **** -0.374
3212 N4 33.6039 35.342 15.1158 N.2 0 **** 0.856
3213 O1 33.7914 36.863 18.5823 O.2 0 **** -0.428
3214 O2 31.8773 37.8127 18.2881 O.2 0 **** -0.428
3215 O3 33.6339 35.105 13.9287 O.2 0 **** -0.428
3216 O4 33.973 36.371 15.6384 O.2 0 **** -0.428
3217 H 33.9882 34.7513 17.822 H 0 **** 0.053
3218 H 32.6414 33.6422 17.9281 H 0 **** 0.053
3219 H 30.0903 35.8557 18.1992 H 0 **** 0.053
3220 H 30.505 36.438 16.6007 H 0 **** 0.053
3221 C1 34.3471 29.2216 21.3623 C.3 0 **** 0.268
3222 C2 36.612 28.1407 21.4444 C.3 0 **** 0.268
3223 N1 34.7002 26.9036 20.5379 N.2 0 **** 0.856
3224 N2 35.2168 28.0913 21.0496 N.2 0 **** -0.374
3225 N3 34.2295 29.4238 22.8133 N.2 0 **** -0.374
3226 N4 33.7302 28.43 23.6509 N.2 0 **** 0.856
3227 O1 33.5427 26.909 20.1844 O.2 0 **** -0.428
3228 O2 35.4569 25.9593 20.4785 O.2 0 **** -0.428
3229 O3 33.7003 28.667 24.838 O.2 0 **** -0.428
3230 O4 33.3612 27.401 23.1282 O.2 0 **** -0.428
3231 H 33.346 29.0207 20.9446 H 0 **** 0.053
3232 H 34.6928 30.1298 20.8386 H 0 **** 0.053
3233 H 37.2439 27.9163 20.5675 H 0 **** 0.053
3234 H 36.8291 27.3339 22.166 H 0 **** 0.053
3235 C1 36.9057 29.6477 23.4291 C.3 0 **** 0.268
3236 C2 34.6408 30.7286 23.3471 C.3 0 **** 0.268
3237 N1 36.5526 31.9657 24.2536 N.2 0 **** 0.856
3238 N2 36.0359 30.778 23.7419 N.2 0 **** -0.374
3239 N3 37.0233 29.4455 21.9781 N.2 0 **** -0.374
3240 N4 37.5225 30.4393 21.1406 N.2 0 **** 0.856
3241 O1 37.7101 31.9603 24.6071 O.2 0 **** -0.428
3242 O2 35.7959 32.91 24.3129 O.2 0 **** -0.428
3243 O3 37.5525 30.2023 19.9535 O.2 0 **** -0.428
3244 O4 37.8916 31.4683 21.6632 O.2 0 **** -0.428
3245 H 37.9068 29.8486 23.8468 H 0 **** 0.053
3246 H 36.56 28.7395 23.9529 H 0 **** 0.053
3247 H 34.0089 30.953 24.224 H 0 **** 0.053
3248 H 34.4237 31.5354 22.6255 H 0 **** 0.053
3249 C1 38.2657 24.3189 27.3871 C.3 0 **** 0.268
3250 C2 40.5306 23.238 27.4692 C.3 0 **** 0.268
3251 N1 38.6188 22.0009 26.5627 N.2 0 **** 0.856
3252 N2 39.1354 23.1886 27.0744 N.2 0 **** -0.374
3253 N3 38.1481 24.5211 28.8381 N.2 0 **** -0.374
3254 N4 37.6488 23.5273 29.6757 N.2 0 **** 0.856
3255 O1 37.4613 22.0063 26.2092 O.2 0 **** -0.428
3256 O2 39.3755 21.0566 26.5033 O.2 0 **** -0.428
3257 O3 37.6189 23.7643 30.8628 O.2 0 **** -0.428
3258 O4 37.2798 22.4983 29.153 O.2 0 **** -0.428
3259 H 37.2646 24.118 26.9694 H 0 **** 0.053
3260 H 38.6114 25.2271 26.8634 H 0 **** 0.053
3261 H 41.1625 23.0136 26.5923 H 0 **** 0.053
3262 H 40.7477 22.4313 28.1908 H 0 **** 0.053
3263 C1 40.8243 24.745 29.4539 C.3 0 **** 0.268
3264 C2 38.5594 25.8259 29.3719 C.3 0 **** 0.268
3265 N1 40.4712 27.063 30.2784 N.2 0 **** 0.856
3266 N2 39.9545 25.8753 29.7667 N.2 0 **** -0.374
3267 N3 40.9419 24.5428 28.0029 N.2 0 **** -0.374
3268 N4 41.4411 25.5366 27.1654 N.2 0 **** 0.856
3269 O1 41.6287 27.0577 30.6319 O.2 0 **** -0.428
3270 O2 39.7145 28.0073 30.3377 O.2 0 **** -0.428
3271 O3 41.4711 25.2996 25.9783 O.2 0 **** -0.428
3272 O4 41.8102 26.5656 27.688 O.2 0 **** -0.428
3273 H 41.8254 24.9459 29.8716 H 0 **** 0.053
3274 H 40.4786 23.8368 29.9777 H 0 **** 0.053
3275 H 37.9275 26.0503 30.2488 H 0 **** 0.053
3276 H 38.3423 26.6327 28.6503 H 0 **** 0.053
3277 C1 17.2468 -0.213 15.3375 C.3 0 **** 0.268
3278 C2 19.5117 -1.2939 15.4196 C.3 0 **** 0.268
3279 N1 17.5999 -2.531 14.5131 N.2 0 **** 0.856
3280 N2 18.1166 -1.3433 15.0248 N.2 0 **** -0.374
3281 N3 17.1292 -0.0108 16.7885 N.2 0 **** -0.374
3282 N4 16.63 -1.0046 17.6261 N.2 0 **** 0.856
3283 O1 16.4424 -2.5257 14.1596 O.2 0 **** -0.428
3284 O2 18.3566 -3.4754 14.4537 O.2 0 **** -0.428
3285 O3 16.6 -0.7677 18.8132 O.2 0 **** -0.428
3286 O4 16.2609 -2.0336 17.1034 O.2 0 **** -0.428
3287 H 16.2457 -0.414 14.9198 H 0 **** 0.053
3288 H 17.5925 0.6951 14.8138 H 0 **** 0.053
3289 H 20.1436 -1.5184 14.5427 H 0 **** 0.053
3290 H 19.7288 -2.1007 16.1412 H 0 **** 0.053
3291 C1 19.8054 0.213 17.4043 C.3 0 **** 0.268
3292 C2 17.5405 1.2939 17.3223 C.3 0 **** 0.268
3293 N1 19.4523 2.531 18.2288 N.2 0 **** 0.856
3294 N2 18.9357 1.3433 17.7171 N.2 0 **** -0.374
3295 N3 19.923 0.0108 15.9533 N.2 0 **** -0.374
3296 N4 20.4223 1.0046 15.1158 N.2 0 **** 0.856
3297 O1 20.6098 2.5257 18.5823 O.2 0 **** -0.428
3298 O2 18.6956 3.4754 18.2881 O.2 0 **** -0.428
3299 O3 20.4522 0.7677 13.9287 O.2 0 **** -0.428
3300 O4 20.7913 2.0336 15.6384 O.2 0 **** -0.428
3301 H 20.8065 0.414 17.822 H 0 **** 0.053
3302 H 19.4597 -0.6951 17.9281 H 0 **** 0.053
3303 H 16.9086 1.5184 18.1992 H 0 **** 0.053
3304 H 17.3234 2.1007 16.6007 H 0 **** 0.053
3305 C1 21.1654 34.1243 21.3623 C.3 0 **** 0.268
3306 C2 23.4303 33.0434 21.4444 C.3 0 **** 0.268
3307 N1 21.5185 31.8063 20.5379 N.2 0 **** 0.856
3308 N2 22.0352 32.994 21.0496 N.2 0 **** -0.374
3309 N3 21.0478 34.3265 22.8133 N.2 0 **** -0.374
3310 N4 20.5486 33.3327 23.6509 N.2 0 **** 0.856
3311 O1 20.3611 31.8116 20.1844 O.2 0 **** -0.428
3312 O2 22.2752 30.8619 20.4785 O.2 0 **** -0.428
3313 O3 20.5186 33.5696 24.838 O.2 0 **** -0.428
3314 O4 20.1795 32.3037 23.1282 O.2 0 **** -0.428
3315 H 20.1643 33.9234 20.9446 H 0 **** 0.053
3316 H 21.5111 35.0325 20.8386 H 0 **** 0.053
3317 H 24.0622 32.819 20.5675 H 0 **** 0.053
3318 H 23.6475 32.2366 22.166 H 0 **** 0.053
3319 C1 23.724 34.5504 23.4291 C.3 0 **** 0.268
3320 C2 21.4591 35.6313 23.3471 C.3 0 **** 0.268
3321 N1 23.3709 36.8684 24.2536 N.2 0 **** 0.856
3322 N2 22.8543 35.6807 23.7419 N.2 0 **** -0.374
3323 N3 23.8416 34.3481 21.9781 N.2 0 **** -0.374
3324 N4 24.3409 35.342 21.1406 N.2 0 **** 0.856
3325 O1 24.5284 36.863 24.6071 O.2 0 **** -0.428
3326 O2 22.6142 37.8127 24.3129 O.2 0 **** -0.428
3327 O3 24.3709 35.105 19.9535 O.2 0 **** -0.428
3328 O4 24.7099 36.371 21.6632 O.2 0 **** -0.428
3329 H 24.7251 34.7513 23.8468 H 0 **** 0.053
3330 H 23.3783 33.6422 23.9529 H 0 **** 0.053
3331 H 20.8272 35.8557 24.224 H 0 **** 0.053
3332 H 21.242 36.438 22.6255 H 0 **** 0.053
3333 C1 25.084 29.2216 27.3871 C.3 0 **** 0.268
3334 C2 27.349 28.1407 27.4692 C.3 0 **** 0.268
3335 N1 25.4371 26.9036 26.5627 N.2 0 **** 0.856
3336 N2 25.9538 28.0913 27.0744 N.2 0 **** -0.374
3337 N3 24.9664 29.4238 28.8381 N.2 0 **** -0.374
3338 N4 24.4672 28.43 29.6757 N.2 0 **** 0.856
3339 O1 24.2797 26.909 26.2092 O.2 0 **** -0.428
3340 O2 26.1939 25.9593 26.5033 O.2 0 **** -0.428
3341 O3 24.4372 28.667 30.8628 O.2 0 **** -0.428
3342 O4 24.0981 27.401 29.153 O.2 0 **** -0.428
3343 H 24.0829 29.0207 26.9694 H 0 **** 0.053
3344 H 25.4297 30.1298 26.8634 H 0 **** 0.053
3345 H 27.9808 27.9163 26.5923 H 0 **** 0.053
3346 H 27.5661 27.3339 28.1908 H 0 **** 0.053
3347 C1 27.6426 29.6477 29.4539 C.3 0 **** 0.268
3348 C2 25.3777 30.7286 29.3719 C.3 0 **** 0.268
3349 N1 27.2895 31.9657 30.2784 N.2 0 **** 0.856
3350 N2 26.7729 30.778 29.7667 N.2 0 **** -0.374
3351 N3 27.7602 29.4455 28.0029 N.2 0 **** -0.374
3352 N4 28.2595 30.4393 27.1654 N.2 0 **** 0.856
3353 O1 28.447 31.9603 30.6319 O.2 0 **** -0.428
3354 O2 26.5328 32.91 30.3377 O.2 0 **** -0.428
3355 O3 28.2895 30.2023 25.9783 O.2 0 **** -0.428
3356 O4 28.6286 31.4683 27.688 O.2 0 **** -0.428
3357 H 28.6437 29.8486 29.8716 H 0 **** 0.053
3358 H 27.2969 28.7395 29.9777 H 0 **** 0.053
3359 H 24.7458 30.953 30.2488 H 0 **** 0.053
3360 H 25.1606 31.5354 28.6503 H 0 **** 0.053
3361 C1 7.98374 -0.213 21.3623 C.3 0 **** 0.268
3362 C2 10.2487 -1.2939 21.4444 C.3 0 **** 0.268
3363 N1 8.33684 -2.531 20.5379 N.2 0 **** 0.856
3364 N2 8.8535 -1.3433 21.0496 N.2 0 **** -0.374
3365 N3 7.86614 -0.0108 22.8133 N.2 0 **** -0.374
3366 N4 7.36691 -1.0046 23.6509 N.2 0 **** 0.856
3367 O1 7.17939 -2.5257 20.1844 O.2 0 **** -0.428
3368 O2 9.09358 -3.4754 20.4785 O.2 0 **** -0.428
3369 O3 7.33692 -0.7677 24.838 O.2 0 **** -0.428
3370 O4 6.99783 -2.0336 23.1282 O.2 0 **** -0.428
3371 H 6.98267 -0.414 20.9446 H 0 **** 0.053
3372 H 8.32945 0.6951 20.8386 H 0 **** 0.053
3373 H 10.8806 -1.5184 20.5675 H 0 **** 0.053
3374 H 10.4658 -2.1007 22.166 H 0 **** 0.053
3375 C1 10.5424 0.213 23.4291 C.3 0 **** 0.268
3376 C2 8.27743 1.2939 23.3471 C.3 0 **** 0.268
3377 N1 10.1893 2.531 24.2536 N.2 0 **** 0.856
3378 N2 9.67261 1.3433 23.7419 N.2 0 **** -0.374
3379 N3 10.66 0.0108 21.9781 N.2 0 **** -0.374
3380 N4 11.1592 1.0046 21.1406 N.2 0 **** 0.856
3381 O1 11.3467 2.5257 24.6071 O.2 0 **** -0.428
3382 O2 9.43253 3.4754 24.3129 O.2 0 **** -0.428
3383 O3 11.1892 0.7677 19.9535 O.2 0 **** -0.428
3384 O4 11.5283 2.0336 21.6632 O.2 0 **** -0.428
3385 H 11.5434 0.414 23.8468 H 0 **** 0.053
3386 H 10.1967 -0.6951 23.9529 H 0 **** 0.053
3387 H 7.64555 1.5184 24.224 H 0 **** 0.053
3388 H 8.06032 2.1007 22.6255 H 0 **** 0.053
3389 C1 11.9023 34.1243 27.3871 C.3 0 **** 0.268
3390 C2 14.1673 33.0434 27.4692 C.3 0 **** 0.268
3391 N1 12.2555 31.8063 26.5627 N.2 0 **** 0.856
3392 N2 12.7721 32.994 27.0744 N.2 0 **** -0.374
3393 N3 11.7848 34.3265 28.8381 N.2 0 **** -0.374
3394 N4 11.2855 33.3327 29.6757 N.2 0 **** 0.856
3395 O1 11.098 31.8116 26.2092 O.2 0 **** -0.428
3396 O2 13.0122 30.8619 26.5033 O.2 0 **** -0.428
3397 O3 11.2555 33.5696 30.8628 O.2 0 **** -0.428
3398 O4 10.9164 32.3037 29.153 O.2 0 **** -0.428
3399 H 10.9013 33.9234 26.9694 H 0 **** 0.053
3400 H 12.2481 35.0325 26.8634 H 0 **** 0.053
3401 H 14.7992 32.819 26.5923 H 0 **** 0.053
3402 H 14.3844 32.2366 28.1908 H 0 **** 0.053
3403 C1 14.461 34.5504 29.4539 C.3 0 **** 0.268
3404 C2 12.196 35.6313 29.3719 C.3 0 **** 0.268
3405 N1 14.1079 36.8684 30.2784 N.2 0 **** 0.856
3406 N2 13.5912 35.6807 29.7667 N.2 0 **** -0.374
3407 N3 14.5786 34.3481 28.0029 N.2 0 **** -0.374
3408 N4 15.0778 35.342 27.1654 N.2 0 **** 0.856
3409 O1 15.2653 36.863 30.6319 O.2 0 **** -0.428
3410 O2 13.3511 37.8127 30.3377 O.2 0 **** -0.428
3411 O3 15.1078 35.105 25.9783 O.2 0 **** -0.428
3412 O4 15.4469 36.371 27.688 O.2 0 **** -0.428
3413 H 15.462 34.7513 29.8716 H 0 **** 0.053
3414 H 14.1153 33.6422 29.9777 H 0 **** 0.053
3415 H 11.5642 35.8557 30.2488 H 0 **** 0.053
3416 H 11.9789 36.438 28.6503 H 0 **** 0.053
3417 C1 62.1362 35.7616 3.2879 C.3 0 **** 0.268
3418 C2 64.4012 34.6807 3.36997 C.3 0 **** 0.268
3419 N1 62.4893 33.4436 2.46344 N.2 0 **** 0.856
3420 N2 63.006 34.6313 2.97516 N.2 0 **** -0.374
3421 N3 62.0186 35.9638 4.7389 N.2 0 **** -0.374
3422 N4 61.5194 34.97 5.57645 N.2 0 **** 0.856
3423 O1 61.3319 33.449 2.10995 O.2 0 **** -0.428
3424 O2 63.2461 32.4993 2.40412 O.2 0 **** -0.428
3425 O3 61.4894 35.207 6.76357 O.2 0 **** -0.428
3426 O4 61.1503 33.941 5.0538 O.2 0 **** -0.428
3427 H 61.1352 35.5607 2.87022 H 0 **** 0.053
3428 H 62.4819 36.6698 2.76416 H 0 **** 0.053
3429 H 65.0331 34.4563 2.49306 H 0 **** 0.053
3430 H 64.6183 33.8739 4.09157 H 0 **** 0.053
3431 C1 64.6949 36.1877 5.35471 C.3 0 **** 0.268
3432 C2 62.4299 37.2686 5.27264 C.3 0 **** 0.268
3433 N1 64.3418 38.5057 6.17917 N.2 0 **** 0.856
3434 N2 63.8251 37.318 5.66745 N.2 0 **** -0.374
3435 N3 64.8125 35.9855 3.90371 N.2 0 **** -0.374
3436 N4 65.3117 36.9793 3.06617 N.2 0 **** 0.856
3437 O1 65.4992 38.5003 6.53267 O.2 0 **** -0.428
3438 O2 63.585 39.45 6.23849 O.2 0 **** -0.428
3439 O3 65.3417 36.7423 1.87904 O.2 0 **** -0.428
3440 O4 65.6808 38.0083 3.58881 O.2 0 **** -0.428
3441 H 65.6959 36.3886 5.77239 H 0 **** 0.053
3442 H 64.3492 35.2795 5.87846 H 0 **** 0.053
3443 H 61.798 37.493 6.14956 H 0 **** 0.053
3444 H 62.2128 38.0754 4.55104 H 0 **** 0.053
3445 C1 48.9546 1.4243 3.2879 C.3 0 **** 0.268
3446 C2 51.2195 0.3434 3.36997 C.3 0 **** 0.268
3447 N1 49.3077 -0.8937 2.46344 N.2 0 **** 0.856
3448 N2 49.8243 0.294 2.97516 N.2 0 **** -0.374
3449 N3 48.837 1.6265 4.7389 N.2 0 **** -0.374
3450 N4 48.3377 0.6327 5.57645 N.2 0 **** 0.856
3451 O1 48.1502 -0.8884 2.10995 O.2 0 **** -0.428
3452 O2 50.0644 -1.8381 2.40412 O.2 0 **** -0.428
3453 O3 48.3078 0.8696 6.76357 O.2 0 **** -0.428
3454 O4 47.9687 -0.3963 5.0538 O.2 0 **** -0.428
3455 H 47.9535 1.2234 2.87022 H 0 **** 0.053
3456 H 49.3003 2.3325 2.76416 H 0 **** 0.053
3457 H 51.8514 0.119 2.49306 H 0 **** 0.053
3458 H 51.4366 -0.4634 4.09157 H 0 **** 0.053
3459 C1 51.5132 1.8504 5.35471 C.3 0 **** 0.268
3460 C2 49.2483 2.9313 5.27264 C.3 0 **** 0.268
3461 N1 51.1601 4.1684 6.17917 N.2 0 **** 0.856
3462 N2 50.6434 2.9807 5.66745 N.2 0 **** -0.374
3463 N3 51.6308 1.6481 3.90371 N.2 0 **** -0.374
3464 N4 52.13 2.642 3.06617 N.2 0 **** 0.856
3465 O1 52.3176 4.163 6.53267 O.2 0 **** -0.428
3466 O2 50.4034 5.1127 6.23849 O.2 0 **** -0.428
3467 O3 52.16 2.405 1.87904 O.2 0 **** -0.428
3468 O4 52.4991 3.671 3.58881 O.2 0 **** -0.428
3469 H 52.5143 2.0513 5.77239 H 0 **** 0.053
3470 H 51.1675 0.9422 5.87846 H 0 **** 0.053
3471 H 48.6164 3.1557 6.14956 H 0 **** 0.053
3472 H 49.0312 3.738 4.55104 H 0 **** 0.053
3473 C1 52.8732 35.7616 9.31271 C.3 0 **** 0.268
3474 C2 55.1381 34.6807 9.39477 C.3 0 **** 0.268
3475 N1 53.2263 33.4436 8.48825 N.2 0 **** 0.856
3476 N2 53.7429 34.6313 8.99997 N.2 0 **** -0.374
3477 N3 52.7556 35.9638 10.7637 N.2 0 **** -0.374
3478 N4 52.2564 34.97 11.6013 N.2 0 **** 0.856
3479 O1 52.0688 33.449 8.13475 O.2 0 **** -0.428
3480 O2 53.983 32.4993 8.42893 O.2 0 **** -0.428
3481 O3 52.2264 35.207 12.7884 O.2 0 **** -0.428
3482 O4 51.8873 33.941 11.0786 O.2 0 **** -0.428
3483 H 51.8721 35.5607 8.89502 H 0 **** 0.053
3484 H 53.2189 36.6698 8.78896 H 0 **** 0.053
3485 H 55.77 34.4563 8.51786 H 0 **** 0.053
3486 H 55.3552 33.8739 10.1164 H 0 **** 0.053
3487 C1 55.4318 36.1877 11.3795 C.3 0 **** 0.268
3488 C2 53.1669 37.2686 11.2975 C.3 0 **** 0.268
3489 N1 55.0787 38.5057 12.204 N.2 0 **** 0.856
3490 N2 54.5621 37.318 11.6923 N.2 0 **** -0.374
3491 N3 55.5494 35.9855 9.92852 N.2 0 **** -0.374
3492 N4 56.0486 36.9793 9.09097 N.2 0 **** 0.856
3493 O1 56.2362 38.5003 12.5575 O.2 0 **** -0.428
3494 O2 54.322 39.45 12.2633 O.2 0 **** -0.428
3495 O3 56.0786 36.7423 7.90385 O.2 0 **** -0.428
3496 O4 56.4177 38.0083 9.61362 O.2 0 **** -0.428
3497 H 56.4329 36.3886 11.7972 H 0 **** 0.053
3498 H 55.0861 35.2795 11.9033 H 0 **** 0.053
3499 H 52.535 37.493 12.1744 H 0 **** 0.053
3500 H 52.9498 38.0754 10.5758 H 0 **** 0.053
3501 C1 56.7918 30.8589 15.3375 C.3 0 **** 0.268
3502 C2 59.0567 29.778 15.4196 C.3 0 **** 0.268
3503 N1 57.1449 28.5409 14.5131 N.2 0 **** 0.856
3504 N2 57.6616 29.7286 15.0248 N.2 0 **** -0.374
3505 N3 56.6742 31.0611 16.7885 N.2 0 **** -0.374
3506 N4 56.175 30.0673 17.6261 N.2 0 **** 0.856
3507 O1 55.9874 28.5463 14.1596 O.2 0 **** -0.428
3508 O2 57.9016 27.5966 14.4537 O.2 0 **** -0.428
3509 O3 56.145 30.3043 18.8132 O.2 0 **** -0.428
3510 O4 55.8059 29.0383 17.1034 O.2 0 **** -0.428
3511 H 55.7907 30.658 14.9198 H 0 **** 0.053
3512 H 57.1375 31.7671 14.8138 H 0 **** 0.053
3513 H 59.6886 29.5536 14.5427 H 0 **** 0.053
3514 H 59.2738 28.9713 16.1412 H 0 **** 0.053
3515 C1 59.3504 31.285 17.4043 C.3 0 **** 0.268
3516 C2 57.0855 32.3659 17.3223 C.3 0 **** 0.268
3517 N1 58.9973 33.603 18.2288 N.2 0 **** 0.856
3518 N2 58.4807 32.4153 17.7171 N.2 0 **** -0.374
3519 N3 59.468 31.0828 15.9533 N.2 0 **** -0.374
3520 N4 59.9673 32.0766 15.1158 N.2 0 **** 0.856
3521 O1 60.1548 33.5977 18.5823 O.2 0 **** -0.428
3522 O2 58.2406 34.5473 18.2881 O.2 0 **** -0.428
3523 O3 59.9972 31.8396 13.9287 O.2 0 **** -0.428
3524 O4 60.3363 33.1056 15.6384 O.2 0 **** -0.428
3525 H 60.3515 31.4859 17.822 H 0 **** 0.053
3526 H 59.0047 30.3768 17.9281 H 0 **** 0.053
3527 H 56.4536 32.5903 18.1992 H 0 **** 0.053
3528 H 56.8684 33.1727 16.6007 H 0 **** 0.053
3529 C1 60.7104 25.9563 21.3623 C.3 0 **** 0.268
3530 C2 62.9753 24.8754 21.4444 C.3 0 **** 0.268
3531 N1 61.0635 23.6383 20.5379 N.2 0 **** 0.856
3532 N2 61.5802 24.8259 21.0496 N.2 0 **** -0.374
3533 N3 60.5928 26.1585 22.8133 N.2 0 **** -0.374
3534 N4 60.0936 25.1647 23.6509 N.2 0 **** 0.856
3535 O1 59.906 23.6436 20.1844 O.2 0 **** -0.428
3536 O2 61.8202 22.6939 20.4785 O.2 0 **** -0.428
3537 O3 60.0636 25.4016 24.838 O.2 0 **** -0.428
3538 O4 59.7245 24.1357 23.1282 O.2 0 **** -0.428
3539 H 59.7093 25.7553 20.9446 H 0 **** 0.053
3540 H 61.0561 26.8644 20.8386 H 0 **** 0.053
3541 H 63.6072 24.6509 20.5675 H 0 **** 0.053
3542 H 63.1924 24.0686 22.166 H 0 **** 0.053
3543 C1 63.269 26.3823 23.4291 C.3 0 **** 0.268
3544 C2 61.0041 27.4632 23.3471 C.3 0 **** 0.268
3545 N1 62.9159 28.7003 24.2536 N.2 0 **** 0.856
3546 N2 62.3993 27.5126 23.7419 N.2 0 **** -0.374
3547 N3 63.3866 26.1801 21.9781 N.2 0 **** -0.374
3548 N4 63.8859 27.1739 21.1406 N.2 0 **** 0.856
3549 O1 64.0734 28.695 24.6071 O.2 0 **** -0.428
3550 O2 62.1592 29.6447 24.3129 O.2 0 **** -0.428
3551 O3 63.9158 26.937 19.9535 O.2 0 **** -0.428
3552 O4 64.2549 28.2029 21.6632 O.2 0 **** -0.428
3553 H 64.2701 26.5833 23.8468 H 0 **** 0.053
3554 H 62.9233 25.4742 23.9529 H 0 **** 0.053
3555 H 60.3722 27.6877 24.224 H 0 **** 0.053
3556 H 60.787 28.27 22.6255 H 0 **** 0.053
3557 C1 39.6915 1.4243 9.31271 C.3 0 **** 0.268
3558 C2 41.9565 0.3434 9.39477 C.3 0 **** 0.268
3559 N1 40.0446 -0.8937 8.48825 N.2 0 **** 0.856
3560 N2 40.5613 0.294 8.99997 N.2 0 **** -0.374
3561 N3 39.5739 1.6265 10.7637 N.2 0 **** -0.374
3562 N4 39.0747 0.6327 11.6013 N.2 0 **** 0.856
3563 O1 38.8872 -0.8884 8.13475 O.2 0 **** -0.428
3564 O2 40.8014 -1.8381 8.42893 O.2 0 **** -0.428
3565 O3 39.0447 0.8696 12.7884 O.2 0 **** -0.428
3566 O4 38.7056 -0.3963 11.0786 O.2 0 **** -0.428
3567 H 38.6905 1.2234 8.89502 H 0 **** 0.053
3568 H 40.0372 2.3325 8.78896 H 0 **** 0.053
3569 H 42.5883 0.119 8.51786 H 0 **** 0.053
3570 H 42.1736 -0.4634 10.1164 H 0 **** 0.053
3571 C1 42.2502 1.8504 11.3795 C.3 0 **** 0.268
3572 C2 39.9852 2.9313 11.2975 C.3 0 **** 0.268
3573 N1 41.897 4.1684 12.204 N.2 0 **** 0.856
3574 N2 41.3804 2.9807 11.6923 N.2 0 **** -0.374
3575 N3 42.3677 1.6481 9.92852 N.2 0 **** -0.374
3576 N4 42.867 2.642 9.09097 N.2 0 **** 0.856
3577 O1 43.0545 4.163 12.5575 O.2 0 **** -0.428
3578 O2 41.1403 5.1127 12.2633 O.2 0 **** -0.428
3579 O3 42.897 2.405 7.90385 O.2 0 **** -0.428
3580 O4 43.2361 3.671 9.61362 O.2 0 **** -0.428
3581 H 43.2512 2.0513 11.7972 H 0 **** 0.053
3582 H 41.9044 0.9422 11.9033 H 0 **** 0.053
3583 H 39.3533 3.1557 12.1744 H 0 **** 0.053
3584 H 39.7681 3.738 10.5758 H 0 **** 0.053
3585 C1 43.6101 35.7616 15.3375 C.3 0 **** 0.268
3586 C2 45.8751 34.6807 15.4196 C.3 0 **** 0.268
3587 N1 43.9632 33.4436 14.5131 N.2 0 **** 0.856
3588 N2 44.4799 34.6313 15.0248 N.2 0 **** -0.374
3589 N3 43.4925 35.9638 16.7885 N.2 0 **** -0.374
3590 N4 42.9933 34.97 17.6261 N.2 0 **** 0.856
3591 O1 42.8058 33.449 14.1596 O.2 0 **** -0.428
3592 O2 44.72 32.4993 14.4537 O.2 0 **** -0.428
3593 O3 42.9633 35.207 18.8132 O.2 0 **** -0.428
3594 O4 42.6242 33.941 17.1034 O.2 0 **** -0.428
3595 H 42.6091 35.5607 14.9198 H 0 **** 0.053
3596 H 43.9558 36.6698 14.8138 H 0 **** 0.053
3597 H 46.5069 34.4563 14.5427 H 0 **** 0.053
3598 H 46.0922 33.8739 16.1412 H 0 **** 0.053
3599 C1 46.1688 36.1877 17.4043 C.3 0 **** 0.268
3600 C2 43.9038 37.2686 17.3223 C.3 0 **** 0.268
3601 N1 45.8157 38.5057 18.2288 N.2 0 **** 0.856
3602 N2 45.299 37.318 17.7171 N.2 0 **** -0.374
3603 N3 46.2864 35.9855 15.9533 N.2 0 **** -0.374
3604 N4 46.7856 36.9793 15.1158 N.2 0 **** 0.856
3605 O1 46.9731 38.5003 18.5823 O.2 0 **** -0.428
3606 O2 45.0589 39.45 18.2881 O.2 0 **** -0.428
3607 O3 46.8156 36.7423 13.9287 O.2 0 **** -0.428
3608 O4 47.1547 38.0083 15.6384 O.2 0 **** -0.428
3609 H 47.1698 36.3886 17.822 H 0 **** 0.053
3610 H 45.8231 35.2795 17.9281 H 0 **** 0.053
3611 H 43.2719 37.493 18.1992 H 0 **** 0.053
3612 H 43.6867 38.0754 16.6007 H 0 **** 0.053
3613 C1 47.5287 30.8589 21.3623 C.3 0 **** 0.268
3614 C2 49.7937 29.778 21.4444 C.3 0 **** 0.268
3615 N1 47.8818 28.5409 20.5379 N.2 0 **** 0.856
3616 N2 48.3985 29.7286 21.0496 N.2 0 **** -0.374
3617 N3 47.4111 31.0611 22.8133 N.2 0 **** -0.374
3618 N4 46.9119 30.0673 23.6509 N.2 0 **** 0.856
3619 O1 46.7244 28.5463 20.1844 O.2 0 **** -0.428
3620 O2 48.6386 27.5966 20.4785 O.2 0 **** -0.428
3621 O3 46.8819 30.3043 24.838 O.2 0 **** -0.428
3622 O4 46.5428 29.0383 23.1282 O.2 0 **** -0.428
3623 H 46.5277 30.658 20.9446 H 0 **** 0.053
3624 H 47.8744 31.7671 20.8386 H 0 **** 0.053
3625 H 50.4256 29.5536 20.5675 H 0 **** 0.053
3626 H 50.0108 28.9713 22.166 H 0 **** 0.053
3627 C1 50.0874 31.285 23.4291 C.3 0 **** 0.268
3628 C2 47.8224 32.3659 23.3471 C.3 0 **** 0.268
3629 N1 49.7343 33.603 24.2536 N.2 0 **** 0.856
3630 N2 49.2176 32.4153 23.7419 N.2 0 **** -0.374
3631 N3 50.205 31.0828 21.9781 N.2 0 **** -0.374
3632 N4 50.7042 32.0766 21.1406 N.2 0 **** 0.856
3633 O1 50.8917 33.5977 24.6071 O.2 0 **** -0.428
3634 O2 48.9775 34.5473 24.3129 O.2 0 **** -0.428
3635 O3 50.7342 31.8396 19.9535 O.2 0 **** -0.428
3636 O4 51.0733 33.1056 21.6632 O.2 0 **** -0.428
3637 H 51.0884 31.4859 23.8468 H 0 **** 0.053
3638 H 49.7417 30.3768 23.9529 H 0 **** 0.053
3639 H 47.1905 32.5903 24.224 H 0 **** 0.053
3640 H 47.6053 33.1727 22.6255 H 0 **** 0.053
3641 C1 51.4473 25.9563 27.3871 C.3 0 **** 0.268
3642 C2 53.7123 24.8754 27.4692 C.3 0 **** 0.268
3643 N1 51.8004 23.6383 26.5627 N.2 0 **** 0.856
3644 N2 52.3171 24.8259 27.0744 N.2 0 **** -0.374
3645 N3 51.3297 26.1585 28.8381 N.2 0 **** -0.374
3646 N4 50.8305 25.1647 29.6757 N.2 0 **** 0.856
3647 O1 50.643 23.6436 26.2092 O.2 0 **** -0.428
3648 O2 52.5572 22.6939 26.5033 O.2 0 **** -0.428
3649 O3 50.8005 25.4016 30.8628 O.2 0 **** -0.428
3650 O4 50.4614 24.1357 29.153 O.2 0 **** -0.428
3651 H 50.4463 25.7553 26.9694 H 0 **** 0.053
3652 H 51.793 26.8644 26.8634 H 0 **** 0.053
3653 H 54.3442 24.6509 26.5923 H 0 **** 0.053
3654 H 53.9294 24.0686 28.1908 H 0 **** 0.053
3655 C1 54.006 26.3823 29.4539 C.3 0 **** 0.268
3656 C2 51.741 27.4632 29.3719 C.3 0 **** 0.268
3657 N1 53.6529 28.7003 30.2784 N.2 0 **** 0.856
3658 N2 53.1362 27.5126 29.7667 N.2 0 **** -0.374
3659 N3 54.1236 26.1801 28.0029 N.2 0 **** -0.374
3660 N4 54.6228 27.1739 27.1654 N.2 0 **** 0.856
3661 O1 54.8103 28.695 30.6319 O.2 0 **** -0.428
3662 O2 52.8961 29.6447 30.3377 O.2 0 **** -0.428
3663 O3 54.6528 26.937 25.9783 O.2 0 **** -0.428
3664 O4 54.9919 28.2029 27.688 O.2 0 **** -0.428
3665 H 55.007 26.5833 29.8716 H 0 **** 0.053
3666 H 53.6603 25.4742 29.9777 H 0 **** 0.053
3667 H 51.1091 27.6877 30.2488 H 0 **** 0.053
3668 H 51.5239 28.27 28.6503 H 0 **** 0.053
3669 C1 30.4285 1.4243 15.3375 C.3 0 **** 0.268
3670 C2 32.6934 0.3434 15.4196 C.3 0 **** 0.268
3671 N1 30.7816 -0.8937 14.5131 N.2 0 **** 0.856
3672 N2 31.2982 0.294 15.0248 N.2 0 **** -0.374
3673 N3 30.3109 1.6265 16.7885 N.2 0 **** -0.374
3674 N4 29.8116 0.6327 17.6261 N.2 0 **** 0.856
3675 O1 29.6241 -0.8884 14.1596 O.2 0 **** -0.428
3676 O2 31.5383 -1.8381 14.4537 O.2 0 **** -0.428
3677 O3 29.7816 0.8696 18.8132 O.2 0 **** -0.428
3678 O4 29.4426 -0.3963 17.1034 O.2 0 **** -0.428
3679 H 29.4274 1.2234 14.9198 H 0 **** 0.053
3680 H 30.7742 2.3325 14.8138 H 0 **** 0.053
3681 H 33.3253 0.119 14.5427 H 0 **** 0.053
3682 H 32.9105 -0.4634 16.1412 H 0 **** 0.053
3683 C1 32.9871 1.8504 17.4043 C.3 0 **** 0.268
3684 C2 30.7221 2.9313 17.3223 C.3 0 **** 0.268
3685 N1 32.634 4.1684 18.2288 N.2 0 **** 0.856
3686 N2 32.1173 2.9807 17.7171 N.2 0 **** -0.374
3687 N3 33.1047 1.6481 15.9533 N.2 0 **** -0.374
3688 N4 33.6039 2.642 15.1158 N.2 0 **** 0.856
3689 O1 33.7914 4.163 18.5823 O.2 0 **** -0.428
3690 O2 31.8773 5.1127 18.2881 O.2 0 **** -0.428
3691 O3 33.6339 2.405 13.9287 O.2 0 **** -0.428
3692 O4 33.973 3.671 15.6384 O.2 0 **** -0.428
3693 H 33.9882 2.0513 17.822 H 0 **** 0.053
3694 H 32.6414 0.9422 17.9281 H 0 **** 0.053
3695 H 30.0903 3.1557 18.1992 H 0 **** 0.053
3696 H 30.505 3.738 16.6007 H 0 **** 0.053
3697 C1 34.3471 35.7616 21.3623 C.3 0 **** 0.268
3698 C2 36.612 34.6807 21.4444 C.3 0 **** 0.268
3699 N1 34.7002 33.4436 20.5379 N.2 0 **** 0.856
3700 N2 35.2168 34.6313 21.0496 N.2 0 **** -0.374
3701 N3 34.2295 35.9638 22.8133 N.2 0 **** -0.374
3702 N4 33.7302 34.97 23.6509 N.2 0 **** 0.856
3703 O1 33.5427 33.449 20.1844 O.2 0 **** -0.428
3704 O2 35.4569 32.4993 20.4785 O.2 0 **** -0.428
3705 O3 33.7003 35.207 24.838 O.2 0 **** -0.428
3706 O4 33.3612 33.941 23.1282 O.2 0 **** -0.428
3707 H 33.346 35.5607 20.9446 H 0 **** 0.053
3708 H 34.6928 36.6698 20.8386 H 0 **** 0.053
3709 H 37.2439 34.4563 20.5675 H 0 **** 0.053
3710 H 36.8291 33.8739 22.166 H 0 **** 0.053
3711 C1 36.9057 36.1877 23.4291 C.3 0 **** 0.268
3712 C2 34.6408 37.2686 23.3471 C.3 0 **** 0.268
3713 N1 36.5526 38.5057 24.2536 N.2 0 **** 0.856
3714 N2 36.0359 37.318 23.7419 N.2 0 **** -0.374
3715 N3 37.0233 35.9855 21.9781 N.2 0 **** -0.374
3716 N4 37.5225 36.9793 21.1406 N.2 0 **** 0.856
3717 O1 37.7101 38.5003 24.6071 O.2 0 **** -0.428
3718 O2 35.7959 39.45 24.3129 O.2 0 **** -0.428
3719 O3 37.5525 36.7423 19.9535 O.2 0 **** -0.428
3720 O4 37.8916 38.0083 21.6632 O.2 0 **** -0.428
3721 H 37.9068 36.3886 23.8468 H 0 **** 0.053
3722 H 36.56 35.2795 23.9529 H 0 **** 0.053
3723 H 34.0089 37.493 24.224 H 0 **** 0.053
3724 H 34.4237 38.0754 22.6255 H 0 **** 0.053
3725 C1 38.2657 30.8589 27.3871 C.3 0 **** 0.268
3726 C2 40.5306 29.778 27.4692 C.3 0 **** 0.268
3727 N1 38.6188 28.5409 26.5627 N.2 0 **** 0.856
3728 N2 39.1354 29.7286 27.0744 N.2 0 **** -0.374
3729 N3 38.1481 31.0611 28.8381 N.2 0 **** -0.374
3730 N4 37.6488 30.0673 29.6757 N.2 0 **** 0.856
3731 O1 37.4613 28.5463 26.2092 O.2 0 **** -0.428
3732 O2 39.3755 27.5966 26.5033 O.2 0 **** -0.428
3733 O3 37.6189 30.3043 30.8628 O.2 0 **** -0.428
3734 O4 37.2798 29.0383 29.153 O.2 0 **** -0.428
3735 H 37.2646 30.658 26.9694 H 0 **** 0.053
3736 H 38.6114 31.7671 26.8634 H 0 **** 0.053
3737 H 41.1625 29.5536 26.5923 H 0 **** 0.053
3738 H 40.7477 28.9713 28.1908 H 0 **** 0.053
3739 C1 40.8243 31.285 29.4539 C.3 0 **** 0.268
3740 C2 38.5594 32.3659 29.3719 C.3 0 **** 0.268
3741 N1 40.4712 33.603 30.2784 N.2 0 **** 0.856
3742 N2 39.9545 32.4153 29.7667 N.2 0 **** -0.374
3743 N3 40.9419 31.0828 28.0029 N.2 0 **** -0.374
3744 N4 41.4411 32.0766 27.1654 N.2 0 **** 0.856
3745 O1 41.6287 33.5977 30.6319 O.2 0 **** -0.428
3746 O2 39.7145 34.5473 30.3377 O.2 0 **** -0.428
3747 O3 41.4711 31.8396 25.9783 O.2 0 **** -0.428
3748 O4 41.8102 33.1056 27.688 O.2 0 **** -0.428
3749 H 41.8254 31.4859 29.8716 H 0 **** 0.053
3750 H 40.4786 30.3768 29.9777 H 0 **** 0.053
3751 H 37.9275 32.5903 30.2488 H 0 **** 0.053
3752 H 38.3423 33.1727 28.6503 H 0 **** 0.053
3753 C1 21.1654 1.4243 21.3623 C.3 0 **** 0.268
3754 C2 23.4303 0.3434 21.4444 C.3 0 **** 0.268
3755 N1 21.5185 -0.8937 20.5379 N.2 0 **** 0.856
3756 N2 22.0352 0.294 21.0496 N.2 0 **** -0.374
3757 N3 21.0478 1.6265 22.8133 N.2 0 **** -0.374
3758 N4 20.5486 0.6327 23.6509 N.2 0 **** 0.856
3759 O1 20.3611 -0.8884 20.1844 O.2 0 **** -0.428
3760 O2 22.2752 -1.8381 20.4785 O.2 0 **** -0.428
3761 O3 20.5186 0.8696 24.838 O.2 0 **** -0.428
3762 O4 20.1795 -0.3963 23.1282 O.2 0 **** -0.428
3763 H 20.1643 1.2234 20.9446 H 0 **** 0.053
3764 H 21.5111 2.3325 20.8386 H 0 **** 0.053
3765 H 24.0622 0.119 20.5675 H 0 **** 0.053
3766 H 23.6475 -0.4634 22.166 H 0 **** 0.053
3767 C1 23.724 1.8504 23.4291 C.3 0 **** 0.268
3768 C2 21.4591 2.9313 23.3471 C.3 0 **** 0.268
3769 N1 23.3709 4.1684 24.2536 N.2 0 **** 0.856
3770 N2 22.8543 2.9807 23.7419 N.2 0 **** -0.374
3771 N3 23.8416 1.6481 21.9781 N.2 0 **** -0.374
3772 N4 24.3409 2.642 21.1406 N.2 0 **** 0.856
3773 O1 24.5284 4.163 24.6071 O.2 0 **** -0.428
3774 O2 22.6142 5.1127 24.3129 O.2 0 **** -0.428
3775 O3 24.3709 2.405 19.9535 O.2 0 **** -0.428
3776 O4 24.7099 3.671 21.6632 O.2 0 **** -0.428
3777 H 24.7251 2.0513 23.8468 H 0 **** 0.053
3778 H 23.3783 0.9422 23.9529 H 0 **** 0.053
3779 H 20.8272 3.1557 24.224 H 0 **** 0.053
3780 H 21.242 3.738 22.6255 H 0 **** 0.053
3781 C1 25.084 35.7616 27.3871 C.3 0 **** 0.268
3782 C2 27.349 34.6807 27.4692 C.3 0 **** 0.268
3783 N1 25.4371 33.4436 26.5627 N.2 0 **** 0.856
3784 N2 25.9538 34.6313 27.0744 N.2 0 **** -0.374
3785 N3 24.9664 35.9638 28.8381 N.2 0 **** -0.374
3786 N4 24.4672 34.97 29.6757 N.2 0 **** 0.856
3787 O1 24.2797 33.449 26.2092 O.2 0 **** -0.428
3788 O2 26.1939 32.4993 26.5033 O.2 0 **** -0.428
3789 O3 24.4372 35.207 30.8628 O.2 0 **** -0.428
3790 O4 24.0981 33.941 29.153 O.2 0 **** -0.428
3791 H 24.0829 35.5607 26.9694 H 0 **** 0.053
3792 H 25.4297 36.6698 26.8634 H 0 **** 0.053
3793 H 27.9808 34.4563 26.5923 H 0 **** 0.053
3794 H 27.5661 33.8739 28.1908 H 0 **** 0.053
3795 C1 27.6426 36.1877 29.4539 C.3 0 **** 0.268
3796 C2 25.3777 37.2686 29.3719 C.3 0 **** 0.268
3797 N1 27.2895 38.5057 30.2784 N.2 0 **** 0.856
3798 N2 26.7729 37.318 29.7667 N.2 0 **** -0.374
3799 N3 27.7602 35.9855 28.0029 N.2 0 **** -0.374
3800 N4 28.2595 36.9793 27.1654 N.2 0 **** 0.856
3801 O1 28.447 38.5003 30.6319 O.2 0 **** -0.428
3802 O2 26.5328 39.45 30.3377 O.2 0 **** -0.428
3803 O3 28.2895 36.7423 25.9783 O.2 0 **** -0.428
3804 O4 28.6286 38.0083 27.688 O.2 0 **** -0.428
3805 H 28.6437 36.3886 29.8716 H 0 **** 0.053
3806 H 27.2969 35.2795 29.9777 H 0 **** 0.053
3807 H 24.7458 37.493 30.2488 H 0 **** 0.053
3808 H 25.1606 38.0754 28.6503 H 0 **** 0.053
3809 C1 62.1362 3.0616 3.2879 C.3 0 **** 0.268
3810 C2 64.4012 1.9807 3.36997 C.3 0 **** 0.268
3811 N1 62.4893 0.7436 2.46344 N.2 0 **** 0.856
3812 N2 63.006 1.9313 2.97516 N.2 0 **** -0.374
3813 N3 62.0186 3.2638 4.7389 N.2 0 **** -0.374
3814 N4 61.5194 2.27 5.57645 N.2 0 **** 0.856
3815 O1 61.3319 0.749 2.10995 O.2 0 **** -0.428
3816 O2 63.2461 -0.2007 2.40412 O.2 0 **** -0.428
3817 O3 61.4894 2.507 6.76357 O.2 0 **** -0.428
3818 O4 61.1503 1.241 5.0538 O.2 0 **** -0.428
3819 H 61.1352 2.8607 2.87022 H 0 **** 0.053
3820 H 62.4819 3.9698 2.76416 H 0 **** 0.053
3821 H 65.0331 1.7563 2.49306 H 0 **** 0.053
3822 H 64.6183 1.1739 4.09157 H 0 **** 0.053
3823 C1 64.6949 3.4877 5.35471 C.3 0 **** 0.268
3824 C2 62.4299 4.5686 5.27264 C.3 0 **** 0.268
3825 N1 64.3418 5.8057 6.17917 N.2 0 **** 0.856
3826 N2 63.8251 4.618 5.66745 N.2 0 **** -0.374
3827 N3 64.8125 3.2855 3.90371 N.2 0 **** -0.374
3828 N4 65.3117 4.2793 3.06617 N.2 0 **** 0.856
3829 O1 65.4992 5.8003 6.53267 O.2 0 **** -0.428
3830 O2 63.585 6.75 6.23849 O.2 0 **** -0.428
3831 O3 65.3417 4.0423 1.87904 O.2 0 **** -0.428
3832 O4 65.6808 5.3083 3.58881 O.2 0 **** -0.428
3833 H 65.6959 3.6886 5.77239 H 0 **** 0.053
3834 H 64.3492 2.5795 5.87846 H 0 **** 0.053
3835 H 61.798 4.793 6.14956 H 0 **** 0.053
3836 H 62.2128 5.3754 4.55104 H 0 **** 0.053
3837 C1 52.8732 3.0616 9.31271 C.3 0 **** 0.268
3838 C2 55.1381 1.9807 9.39477 C.3 0 **** 0.268
3839 N1 53.2263 0.7436 8.48825 N.2 0 **** 0.856
3840 N2 53.7429 1.9313 8.99997 N.2 0 **** -0.374
3841 N3 52.7556 3.2638 10.7637 N.2 0 **** -0.374
3842 N4 52.2564 2.27 11.6013 N.2 0 **** 0.856
3843 O1 52.0688 0.749 8.13475 O.2 0 **** -0.428
3844 O2 53.983 -0.2007 8.42893 O.2 0 **** -0.428
3845 O3 52.2264 2.507 12.7884 O.2 0 **** -0.428
3846 O4 51.8873 1.241 11.0786 O.2 0 **** -0.428
3847 H 51.8721 2.8607 8.89502 H 0 **** 0.053
3848 H 53.2189 3.9698 8.78896 H 0 **** 0.053
3849 H 55.77 1.7563 8.51786 H 0 **** 0.053
3850 H 55.3552 1.1739 10.1164 H 0 **** 0.053
3851 C1 55.4318 3.4877 11.3795 C.3 0 **** 0.268
3852 C2 53.1669 4.5686 11.2975 C.3 0 **** 0.268
3853 N1 55.0787 5.8057 12.204 N.2 0 **** 0.856
3854 N2 54.5621 4.618 11.6923 N.2 0 **** -0.374
3855 N3 55.5494 3.2855 9.92852 N.2 0 **** -0.374
3856 N4 56.0486 4.2793 9.09097 N.2 0 **** 0.856
3857 O1 56.2362 5.8003 12.5575 O.2 0 **** -0.428
3858 O2 54.322 6.75 12.2633 O.2 0 **** -0.428
3859 O3 56.0786 4.0423 7.90385 O.2 0 **** -0.428
3860 O4 56.4177 5.3083 9.61362 O.2 0 **** -0.428
3861 H 56.4329 3.6886 11.7972 H 0 **** 0.053
3862 H 55.0861 2.5795 11.9033 H 0 **** 0.053
3863 H 52.535 4.793 12.1744 H 0 **** 0.053
3864 H 52.9498 5.3754 10.5758 H 0 **** 0.053
3865 C1 56.7918 37.3989 15.3375 C.3 0 **** 0.268
3866 C2 59.0567 36.318 15.4196 C.3 0 **** 0.268
3867 N1 57.1449 35.0809 14.5131 N.2 0 **** 0.856
3868 N2 57.6616 36.2686 15.0248 N.2 0 **** -0.374
3869 N3 56.6742 37.6011 16.7885 N.2 0 **** -0.374
3870 N4 56.175 36.6073 17.6261 N.2 0 **** 0.856
3871 O1 55.9874 35.0863 14.1596 O.2 0 **** -0.428
3872 O2 57.9016 34.1366 14.4537 O.2 0 **** -0.428
3873 O3 56.145 36.8443 18.8132 O.2 0 **** -0.428
3874 O4 55.8059 35.5783 17.1034 O.2 0 **** -0.428
3875 H 55.7907 37.198 14.9198 H 0 **** 0.053
3876 H 57.1375 38.3071 14.8138 H 0 **** 0.053
3877 H 59.6886 36.0936 14.5427 H 0 **** 0.053
3878 H 59.2738 35.5113 16.1412 H 0 **** 0.053
3879 C1 59.3504 37.825 17.4043 C.3 0 **** 0.268
3880 C2 57.0855 38.9059 17.3223 C.3 0 **** 0.268
3881 N1 58.9973 40.143 18.2288 N.2 0 **** 0.856
3882 N2 58.4807 38.9553 17.7171 N.2 0 **** -0.374
3883 N3 59.468 37.6228 15.9533 N.2 0 **** -0.374
3884 N4 59.9673 38.6166 15.1158 N.2 0 **** 0.856
3885 O1 60.1548 40.1377 18.5823 O.2 0 **** -0.428
3886 O2 58.2406 41.0873 18.2881 O.2 0 **** -0.428
3887 O3 59.9972 38.3796 13.9287 O.2 0 **** -0.428
3888 O4 60.3363 39.6456 15.6384 O.2 0 **** -0.428
3889 H 60.3515 38.0259 17.822 H 0 **** 0.053
3890 H 59.0047 36.9168 17.9281 H 0 **** 0.053
3891 H 56.4536 39.1303 18.1992 H 0 **** 0.053
3892 H 56.8684 39.7127 16.6007 H 0 **** 0.053
3893 C1 60.7104 32.4963 21.3623 C.3 0 **** 0.268
3894 C2 62.9753 31.4154 21.4444 C.3 0 **** 0.268
3895 N1 61.0635 30.1783 20.5379 N.2 0 **** 0.856
3896 N2 61.5802 31.3659 21.0496 N.2 0 **** -0.374
3897 N3 60.5928 32.6985 22.8133 N.2 0 **** -0.374
3898 N4 60.0936 31.7047 23.6509 N.2 0 **** 0.856
3899 O1 59.906 30.1836 20.1844 O.2 0 **** -0.428
3900 O2 61.8202 29.2339 20.4785 O.2 0 **** -0.428
3901 O3 60.0636 31.9416 24.838 O.2 0 **** -0.428
3902 O4 59.7245 30.6757 23.1282 O.2 0 **** -0.428
3903 H 59.7093 32.2953 20.9446 H 0 **** 0.053
3904 H 61.0561 33.4044 20.8386 H 0 **** 0.053
3905 H 63.6072 31.1909 20.5675 H 0 **** 0.053
3906 H 63.1924 30.6086 22.166 H 0 **** 0.053
3907 C1 63.269 32.9223 23.4291 C.3 0 **** 0.268
3908 C2 61.0041 34.0032 23.3471 C.3 0 **** 0.268
3909 N1 62.9159 35.2403 24.2536 N.2 0 **** 0.856
3910 N2 62.3993 34.0526 23.7419 N.2 0 **** -0.374
3911 N3 63.3866 32.7201 21.9781 N.2 0 **** -0.374
3912 N4 63.8859 33.7139 21.1406 N.2 0 **** 0.856
3913 O1 64.0734 35.235 24.6071 O.2 0 **** -0.428
3914 O2 62.1592 36.1847 24.3129 O.2 0 **** -0.428
3915 O3 63.9158 33.477 19.9535 O.2 0 **** -0.428
3916 O4 64.2549 34.7429 21.6632 O.2 0 **** -0.428
3917 H 64.2701 33.1233 23.8468 H 0 **** 0.053
3918 H 62.9233 32.0142 23.9529 H 0 **** 0.053
3919 H 60.3722 34.2277 24.224 H 0 **** 0.053
3920 H 60.787 34.81 22.6255 H 0 **** 0.053
3921 C1 43.6101 3.0616 15.3375 C.3 0 **** 0.268
3922 C2 45.8751 1.9807 15.4196 C.3 0 **** 0.268
3923 N1 43.9632 0.7436 14.5131 N.2 0 **** 0.856
3924 N2 44.4799 1.9313 15.0248 N.2 0 **** -0.374
3925 N3 43.4925 3.2638 16.7885 N.2 0 **** -0.374
3926 N4 42.9933 2.27 17.6261 N.2 0 **** 0.856
3927 O1 42.8058 0.749 14.1596 O.2 0 **** -0.428
3928 O2 44.72 -0.2007 14.4537 O.2 0 **** -0.428
3929 O3 42.9633 2.507 18.8132 O.2 0 **** -0.428
3930 O4 42.6242 1.241 17.1034 O.2 0 **** -0.428
3931 H 42.6091 2.8607 14.9198 H 0 **** 0.053
3932 H 43.9558 3.9698 14.8138 H 0 **** 0.053
3933 H 46.5069 1.7563 14.5427 H 0 **** 0.053
3934 H 46.0922 1.1739 16.1412 H 0 **** 0.053
3935 C1 46.1688 3.4877 17.4043 C.3 0 **** 0.268
3936 C2 43.9038 4.5686 17.3223 C.3 0 **** 0.268
3937 N1 45.8157 5.8057 18.2288 N.2 0 **** 0.856
3938 N2 45.299 4.618 17.7171 N.2 0 **** -0.374
3939 N3 46.2864 3.2855 15.9533 N.2 0 **** -0.374
3940 N4 46.7856 4.2793 15.1158 N.2 0 **** 0.856
3941 O1 46.9731 5.8003 18.5823 O.2 0 **** -0.428
3942 O2 45.0589 6.75 18.2881 O.2 0 **** -0.428
3943 O3 46.8156 4.0423 13.9287 O.2 0 **** -0.428
3944 O4 47.1547 5.3083 15.6384 O.2 0 **** -0.428
3945 H 47.1698 3.6886 17.822 H 0 **** 0.053
3946 H 45.8231 2.5795 17.9281 H 0 **** 0.053
3947 H 43.2719 4.793 18.1992 H 0 **** 0.053
3948 H 43.6867 5.3754 16.6007 H 0 **** 0.053
3949 C1 47.5287 37.3989 21.3623 C.3 0 **** 0.268
3950 C2 49.7937 36.318 21.4444 C.3 0 **** 0.268
3951 N1 47.8818 35.0809 20.5379 N.2 0 **** 0.856
3952 N2 48.3985 36.2686 21.0496 N.2 0 **** -0.374
3953 N3 47.4111 37.6011 22.8133 N.2 0 **** -0.374
3954 N4 46.9119 36.6073 23.6509 N.2 0 **** 0.856
3955 O1 46.7244 35.0863 20.1844 O.2 0 **** -0.428
3956 O2 48.6386 34.1366 20.4785 O.2 0 **** -0.428
3957 O3 46.8819 36.8443 24.838 O.2 0 **** -0.428
3958 O4 46.5428 35.5783 23.1282 O.2 0 **** -0.428
3959 H 46.5277 37.198 20.9446 H 0 **** 0.053
3960 H 47.8744 38.3071 20.8386 H 0 **** 0.053
3961 H 50.4256 36.0936 20.5675 H 0 **** 0.053
3962 H 50.0108 35.5113 22.166 H 0 **** 0.053
3963 C1 50.0874 37.825 23.4291 C.3 0 **** 0.268
3964 C2 47.8224 38.9059 23.3471 C.3 0 **** 0.268
3965 N1 49.7343 40.143 24.2536 N.2 0 **** 0.856
3966 N2 49.2176 38.9553 23.7419 N.2 0 **** -0.374
3967 N3 50.205 37.6228 21.9781 N.2 0 **** -0.374
3968 N4 50.7042 38.6166 21.1406 N.2 0 **** 0.856
3969 O1 50.8917 40.1377 24.6071 O.2 0 **** -0.428
3970 O2 48.9775 41.0873 24.3129 O.2 0 **** -0.428
3971 O3 50.7342 38.3796 19.9535 O.2 0 **** -0.428
3972 O4 51.0733 39.6456 21.6632 O.2 0 **** -0.428
3973 H 51.0884 38.0259 23.8468 H 0 **** 0.053
3974 H 49.7417 36.9168 23.9529 H 0 **** 0.053
3975 H 47.1905 39.1303 24.224 H 0 **** 0.053
3976 H 47.6053 39.7127 22.6255 H 0 **** 0.053
3977 C1 51.4473 32.4963 27.3871 C.3 0 **** 0.268
3978 C2 53.7123 31.4154 27.4692 C.3 0 **** 0.268
3979 N1 51.8004 30.1783 26.5627 N.2 0 **** 0.856
3980 N2 52.3171 31.3659 27.0744 N.2 0 **** -0.374
3981 N3 51.3297 32.6985 28.8381 N.2 0 **** -0.374
3982 N4 50.8305 31.7047 29.6757 N.2 0 **** 0.856
3983 O1 50.643 30.1836 26.2092 O.2 0 **** -0.428
3984 O2 52.5572 29.2339 26.5033 O.2 0 **** -0.428
3985 O3 50.8005 31.9416 30.8628 O.2 0 **** -0.428
3986 O4 50.4614 30.6757 29.153 O.2 0 **** -0.428
3987 H 50.4463 32.2953 26.9694 H 0 **** 0.053
3988 H 51.793 33.4044 26.8634 H 0 **** 0.053
3989 H 54.3442 31.1909 26.5923 H 0 **** 0.053
3990 H 53.9294 30.6086 28.1908 H 0 **** 0.053
3991 C1 54.006 32.9223 29.4539 C.3 0 **** 0.268
3992 C2 51.741 34.0032 29.3719 C.3 0 **** 0.268
3993 N1 53.6529 35.2403 30.2784 N.2 0 **** 0.856
3994 N2 53.1362 34.0526 29.7667 N.2 0 **** -0.374
3995 N3 54.1236 32.7201 28.0029 N.2 0 **** -0.374
3996 N4 54.6228 33.7139 27.1654 N.2 0 **** 0.856
3997 O1 54.8103 35.235 30.6319 O.2 0 **** -0.428
3998 O2 52.8961 36.1847 30.3377 O.2 0 **** -0.428
3999 O3 54.6528 33.477 25.9783 O.2 0 **** -0.428
4000 O4 54.9919 34.7429 27.688 O.2 0 **** -0.428
4001 H 55.007 33.1233 29.8716 H 0 **** 0.053
4002 H 53.6603 32.0142 29.9777 H 0 **** 0.053
4003 H 51.1091 34.2277 30.2488 H 0 **** 0.053
4004 H 51.5239 34.81 28.6503 H 0 **** 0.053
4005 C1 34.3471 3.0616 21.3623 C.3 0 **** 0.268
4006 C2 36.612 1.9807 21.4444 C.3 0 **** 0.268
4007 N1 34.7002 0.7436 20.5379 N.2 0 **** 0.856
4008 N2 35.2168 1.9313 21.0496 N.2 0 **** -0.374
4009 N3 34.2295 3.2638 22.8133 N.2 0 **** -0.374
4010 N4 33.7302 2.27 23.6509 N.2 0 **** 0.856
4011 O1 33.5427 0.749 20.1844 O.2 0 **** -0.428
4012 O2 35.4569 -0.2007 20.4785 O.2 0 **** -0.428
4013 O3 33.7003 2.507 24.838 O.2 0 **** -0.428
4014 O4 33.3612 1.241 23.1282 O.2 0 **** -0.428
4015 H 33.346 2.8607 20.9446 H 0 **** 0.053
4016 H 34.6928 3.9698 20.8386 H 0 **** 0.053
4017 H 37.2439 1.7563 20.5675 H 0 **** 0.053
4018 H 36.8291 1.1739 22.166 H 0 **** 0.053
4019 C1 36.9057 3.4877 23.4291 C.3 0 **** 0.268
4020 C2 34.6408 4.5686 23.3471 C.3 0 **** 0.268
4021 N1 36.5526 5.8057 24.2536 N.2 0 **** 0.856
4022 N2 36.0359 4.618 23.7419 N.2 0 **** -0.374
4023 N3 37.0233 3.2855 21.9781 N.2 0 **** -0.374
4024 N4 37.5225 4.2793 21.1406 N.2 0 **** 0.856
4025 O1 37.7101 5.8003 24.6071 O.2 0 **** -0.428
4026 O2 35.7959 6.75 24.3129 O.2 0 **** -0.428
4027 O3 37.5525 4.0423 19.9535 O.2 0 **** -0.428
4028 O4 37.8916 5.3083 21.6632 O.2 0 **** -0.428
4029 H 37.9068 3.6886 23.8468 H 0 **** 0.053
4030 H 36.56 2.5795 23.9529 H 0 **** 0.053
4031 H 34.0089 4.793 24.224 H 0 **** 0.053
4032 H 34.4237 5.3754 22.6255 H 0 **** 0.053
4033 C1 38.2657 37.3989 27.3871 C.3 0 **** 0.268
4034 C2 40.5306 36.318 27.4692 C.3 0 **** 0.268
4035 N1 38.6188 35.0809 26.5627 N.2 0 **** 0.856
4036 N2 39.1354 36.2686 27.0744 N.2 0 **** -0.374
4037 N3 38.1481 37.6011 28.8381 N.2 0 **** -0.374
4038 N4 37.6488 36.6073 29.6757 N.2 0 **** 0.856
4039 O1 37.4613 35.0863 26.2092 O.2 0 **** -0.428
4040 O2 39.3755 34.1366 26.5033 O.2 0 **** -0.428
4041 O3 37.6189 36.8443 30.8628 O.2 0 **** -0.428
4042 O4 37.2798 35.5783 29.153 O.2 0 **** -0.428
4043 H 37.2646 37.198 26.9694 H 0 **** 0.053
4044 H 38.6114 38.3071 26.8634 H 0 **** 0.053
4045 H 41.1625 36.0936 26.5923 H 0 **** 0.053
4046 H 40.7477 35.5113 28.1908 H 0 **** 0.053
4047 C1 40.8243 37.825 29.4539 C.3 0 **** 0.268
4048 C2 38.5594 38.9059 29.3719 C.3 0 **** 0.268
4049 N1 40.4712 40.143 30.2784 N.2 0 **** 0.856
4050 N2 39.9545 38.9553 29.7667 N.2 0 **** -0.374
4051 N3 40.9419 37.6228 28.0029 N.2 0 **** -0.374
4052 N4 41.4411 38.6166 27.1654 N.2 0 **** 0.856
4053 O1 41.6287 40.1377 30.6319 O.2 0 **** -0.428
4054 O2 39.7145 41.0873 30.3377 O.2 0 **** -0.428
4055 O3 41.4711 38.3796 25.9783 O.2 0 **** -0.428
4056 O4 41.8102 39.6456 27.688 O.2 0 **** -0.428
4057 H 41.8254 38.0259 29.8716 H 0 **** 0.053
4058 H 40.4786 36.9168 29.9777 H 0 **** 0.053
4059 H 37.9275 39.1303 30.2488 H 0 **** 0.053
4060 H 38.3423 39.7127 28.6503 H 0 **** 0.053
4061 C1 56.7918 4.6989 15.3375 C.3 0 **** 0.268
4062 C2 59.0567 3.618 15.4196 C.3 0 **** 0.268
4063 N1 57.1449 2.3809 14.5131 N.2 0 **** 0.856
4064 N2 57.6616 3.5686 15.0248 N.2 0 **** -0.374
4065 N3 56.6742 4.9011 16.7885 N.2 0 **** -0.374
4066 N4 56.175 3.9073 17.6261 N.2 0 **** 0.856
4067 O1 55.9874 2.3863 14.1596 O.2 0 **** -0.428
4068 O2 57.9016 1.4366 14.4537 O.2 0 **** -0.428
4069 O3 56.145 4.1443 18.8132 O.2 0 **** -0.428
4070 O4 55.8059 2.8783 17.1034 O.2 0 **** -0.428
4071 H 55.7907 4.498 14.9198 H 0 **** 0.053
4072 H 57.1375 5.6071 14.8138 H 0 **** 0.053
4073 H 59.6886 3.3936 14.5427 H 0 **** 0.053
4074 H 59.2738 2.8113 16.1412 H 0 **** 0.053
4075 C1 59.3504 5.125 17.4043 C.3 0 **** 0.268
4076 C2 57.0855 6.2059 17.3223 C.3 0 **** 0.268
4077 N1 58.9973 7.443 18.2288 N.2 0 **** 0.856
4078 N2 58.4807 6.2553 17.7171 N.2 0 **** -0.374
4079 N3 59.468 4.9228 15.9533 N.2 0 **** -0.374
4080 N4 59.9673 5.9166 15.1158 N.2 0 **** 0.856
4081 O1 60.1548 7.4377 18.5823 O.2 0 **** -0.428
4082 O2 58.2406 8.3873 18.2881 O.2 0 **** -0.428
4083 O3 59.9972 5.6796 13.9287 O.2 0 **** -0.428
4084 O4 60.3363 6.9456 15.6384 O.2 0 **** -0.428
4085 H 60.3515 5.3259 17.822 H 0 **** 0.053
4086 H 59.0047 4.2168 17.9281 H 0 **** 0.053
4087 H 56.4536 6.4303 18.1992 H 0 **** 0.053
4088 H 56.8684 7.0127 16.6007 H 0 **** 0.053
4089 C1 60.7104 -0.2037 21.3623 C.3 0 **** 0.268
4090 C2 62.9753 -1.2846 21.4444 C.3 0 **** 0.268
4091 N1 61.0635 -2.5217 20.5379 N.2 0 **** 0.856
4092 N2 61.5802 -1.3341 21.0496 N.2 0 **** -0.374
4093 N3 60.5928 -0.0015 22.8133 N.2 0 **** -0.374
4094 N4 60.0936 -0.9953 23.6509 N.2 0 **** 0.856
4095 O1 59.906 -2.5164 20.1844 O.2 0 **** -0.428
4096 O2 61.8202 -3.4661 20.4785 O.2 0 **** -0.428
4097 O3 60.0636 -0.7584 24.838 O.2 0 **** -0.428
4098 O4 59.7245 -2.0243 23.1282 O.2 0 **** -0.428
4099 H 59.7093 -0.4047 20.9446 H 0 **** 0.053
4100 H 61.0561 0.7044 20.8386 H 0 **** 0.053
4101 H 63.6072 -1.5091 20.5675 H 0 **** 0.053
4102 H 63.1924 -2.0914 22.166 H 0 **** 0.053
4103 C1 63.269 0.2223 23.4291 C.3 0 **** 0.268
4104 C2 61.0041 1.3032 23.3471 C.3 0 **** 0.268
4105 N1 62.9159 2.5403 24.2536 N.2 0 **** 0.856
4106 N2 62.3993 1.3526 23.7419 N.2 0 **** -0.374
4107 N3 63.3866 0.0201 21.9781 N.2 0 **** -0.374
4108 N4 63.8859 1.0139 21.1406 N.2 0 **** 0.856
4109 O1 64.0734 2.535 24.6071 O.2 0 **** -0.428
4110 O2 62.1592 3.4847 24.3129 O.2 0 **** -0.428
4111 O3 63.9158 0.777 19.9535 O.2 0 **** -0.428
4112 O4 64.2549 2.0429 21.6632 O.2 0 **** -0.428
4113 H 64.2701 0.4233 23.8468 H 0 **** 0.053
4114 H 62.9233 -0.6858 23.9529 H 0 **** 0.053
4115 H 60.3722 1.5277 24.224 H 0 **** 0.053
4116 H 60.787 2.11 22.6255 H 0 **** 0.053
4117 C1 47.5287 4.6989 21.3623 C.3 0 **** 0.268
4118 C2 49.7937 3.618 21.4444 C.3 0 **** 0.268
4119 N1 47.8818 2.3809 20.5379 N.2 0 **** 0.856
4120 N2 48.3985 3.5686 21.0496 N.2 0 **** -0.374
4121 N3 47.4111 4.9011 22.8133 N.2 0 **** -0.374
4122 N4 46.9119 3.9073 23.6509 N.2 0 **** 0.856
4123 O1 46.7244 2.3863 20.1844 O.2 0 **** -0.428
4124 O2 48.6386 1.4366 20.4785 O.2 0 **** -0.428
4125 O3 46.8819 4.1443 24.838 O.2 0 **** -0.428
4126 O4 46.5428 2.8783 23.1282 O.2 0 **** -0.428
4127 H 46.5277 4.498 20.9446 H 0 **** 0.053
4128 H 47.8744 5.6071 20.8386 H 0 **** 0.053
4129 H 50.4256 3.3936 20.5675 H 0 **** 0.053
4130 H 50.0108 2.8113 22.166 H 0 **** 0.053
4131 C1 50.0874 5.125 23.4291 C.3 0 **** 0.268
4132 C2 47.8224 6.2059 23.3471 C.3 0 **** 0.268
4133 N1 49.7343 7.443 24.2536 N.2 0 **** 0.856
4134 N2 49.2176 6.2553 23.7419 N.2 0 **** -0.374
4135 N3 50.205 4.9228 21.9781 N.2 0 **** -0.374
4136 N4 50.7042 5.9166 21.1406 N.2 0 **** 0.856
4137 O1 50.8917 7.4377 24.6071 O.2 0 **** -0.428
4138 O2 48.9775 8.3873 24.3129 O.2 0 **** -0.428
4139 O3 50.7342 5.6796 19.9535 O.2 0 **** -0.428
4140 O4 51.0733 6.9456 21.6632 O.2 0 **** -0.428
4141 H 51.0884 5.3259 23.8468 H 0 **** 0.053
4142 H 49.7417 4.2168 23.9529 H 0 **** 0.053
4143 H 47.1905 6.4303 24.224 H 0 **** 0.053
4144 H 47.6053 7.0127 22.6255 H 0 **** 0.053
4145 C1 51.4473 -0.2037 27.3871 C.3 0 **** 0.268
4146 C2 53.7123 -1.2846 27.4692 C.3 0 **** 0.268
4147 N1 51.8004 -2.5217 26.5627 N.2 0 **** 0.856
4148 N2 52.3171 -1.3341 27.0744 N.2 0 **** -0.374
4149 N3 51.3297 -0.0015 28.8381 N.2 0 **** -0.374
4150 N4 50.8305 -0.9953 29.6757 N.2 0 **** 0.856
4151 O1 50.643 -2.5164 26.2092 O.2 0 **** -0.428
4152 O2 52.5572 -3.4661 26.5033 O.2 0 **** -0.428
4153 O3 50.8005 -0.7584 30.8628 O.2 0 **** -0.428
4154 O4 50.4614 -2.0243 29.153 O.2 0 **** -0.428
4155 H 50.4463 -0.4047 26.9694 H 0 **** 0.053
4156 H 51.793 0.7044 26.8634 H 0 **** 0.053
4157 H 54.3442 -1.5091 26.5923 H 0 **** 0.053
4158 H 53.9294 -2.0914 28.1908 H 0 **** 0.053
4159 C1 54.006 0.2223 29.4539 C.3 0 **** 0.268
4160 C2 51.741 1.3032 29.3719 C.3 0 **** 0.268
4161 N1 53.6529 2.5403 30.2784 N.2 0 **** 0.856
4162 N2 53.1362 1.3526 29.7667 N.2 0 **** -0.374
4163 N3 54.1236 0.0201 28.0029 N.2 0 **** -0.374
4164 N4 54.6228 1.0139 27.1654 N.2 0 **** 0.856
4165 O1 54.8103 2.535 30.6319 O.2 0 **** -0.428
4166 O2 52.8961 3.4847 30.3377 O.2 0 **** -0.428
4167 O3 54.6528 0.777 25.9783 O.2 0 **** -0.428
4168 O4 54.9919 2.0429 27.688 O.2 0 **** -0.428
4169 H 55.007 0.4233 29.8716 H 0 **** 0.053
4170 H 53.6603 -0.6858 29.9777 H 0 **** 0.053
4171 H 51.1091 1.5277 30.2488 H 0 **** 0.053
4172 H 51.5239 2.11 28.6503 H 0 **** 0.053
4173 C1 60.7104 6.3363 21.3623 C.3 0 **** 0.268
4174 C2 62.9753 5.2554 21.4444 C.3 0 **** 0.268
4175 N1 61.0635 4.0183 20.5379 N.2 0 **** 0.856
4176 N2 61.5802 5.2059 21.0496 N.2 0 **** -0.374
4177 N3 60.5928 6.5385 22.8133 N.2 0 **** -0.374
4178 N4 60.0936 5.5447 23.6509 N.2 0 **** 0.856
4179 O1 59.906 4.0236 20.1844 O.2 0 **** -0.428
4180 O2 61.8202 3.0739 20.4785 O.2 0 **** -0.428
4181 O3 60.0636 5.7816 24.838 O.2 0 **** -0.428
4182 O4 59.7245 4.5157 23.1282 O.2 0 **** -0.428
4183 H 59.7093 6.1353 20.9446 H 0 **** 0.053
4184 H 61.0561 7.2444 20.8386 H 0 **** 0.053
4185 H 63.6072 5.0309 20.5675 H 0 **** 0.053
4186 H 63.1924 4.4486 22.166 H 0 **** 0.053
4187 C1 63.269 6.7623 23.4291 C.3 0 **** 0.268
4188 C2 61.0041 7.8432 23.3471 C.3 0 **** 0.268
4189 N1 62.9159 9.0803 24.2536 N.2 0 **** 0.856
4190 N2 62.3993 7.8926 23.7419 N.2 0 **** -0.374
4191 N3 63.3866 6.5601 21.9781 N.2 0 **** -0.374
4192 N4 63.8859 7.5539 21.1406 N.2 0 **** 0.856
4193 O1 64.0734 9.075 24.6071 O.2 0 **** -0.428
4194 O2 62.1592 10.0247 24.3129 O.2 0 **** -0.428
4195 O3 63.9158 7.317 19.9535 O.2 0 **** -0.428
4196 O4 64.2549 8.5829 21.6632 O.2 0 **** -0.428
4197 H 64.2701 6.9633 23.8468 H 0 **** 0.053
4198 H 62.9233 5.8542 23.9529 H 0 **** 0.053
4199 H 60.3722 8.0677 24.224 H 0 **** 0.053
4200 H 60.787 8.65 22.6255 H 0 **** 0.053
4201 C1 4.52403 5.92973 5.90975 C.3 0 **** 0.268
4202 C2 5.36732 7.01062 3.80604 C.3 0 **** 0.268
4203 N1 5.42085 8.24773 5.92124 N.2 0 **** 0.856
4204 N2 5.16255 7.06004 5.24148 N.2 0 **** -0.374
4205 N3 3.14996 5.72751 5.42894 N.2 0 **** -0.374
4206 N4 2.18194 6.72132 5.54572 N.2 0 **** 0.856
4207 O1 5.2747 8.24237 7.12261 O.2 0 **** -0.428
4208 O2 5.78189 9.19207 5.25354 O.2 0 **** -0.428
4209 O3 1.0846 6.48437 5.09182 O.2 0 **** -0.428
4210 O4 2.51006 7.75033 6.095 O.2 0 **** -0.428
4211 H 4.49996 6.13065 6.99418 H 0 **** 0.053
4212 H 5.14296 5.02155 5.80608 H 0 **** 0.053
4213 H 6.42512 7.23506 3.58397 H 0 **** 0.053
4214 H 4.79571 7.8174 3.31501 H 0 **** 0.053
4215 C1 3.6721 5.50366 2.73287 C.3 0 **** 0.268
4216 C2 2.82881 4.42276 4.83657 C.3 0 **** 0.268
4217 N1 2.77529 3.18565 2.72137 N.2 0 **** 0.856
4218 N2 3.03358 4.37335 3.40114 N.2 0 **** -0.374
4219 N3 5.04617 5.70587 3.21367 N.2 0 **** -0.374
4220 N4 6.0142 4.71206 3.0969 N.2 0 **** 0.856
4221 O1 2.92144 3.19101 1.52 O.2 0 **** -0.428
4222 O2 2.41424 2.24132 3.38907 O.2 0 **** -0.428
4223 O3 7.11153 4.94901 3.5508 O.2 0 **** -0.428
4224 O4 5.68608 3.68305 2.54761 O.2 0 **** -0.428
4225 H 3.69617 5.30273 1.64843 H 0 **** 0.053
4226 H 3.05317 6.41183 2.83654 H 0 **** 0.053
4227 H 1.77102 4.19833 5.05864 H 0 **** 0.053
4228 H 3.40042 3.61598 5.3276 H 0 **** 0.053
4229 C1 17.7057 7.56705 5.90975 C.3 0 **** 0.268
4230 C2 18.549 8.64795 3.80604 C.3 0 **** 0.268
4231 N1 18.6025 9.88505 5.92124 N.2 0 **** 0.856
4232 N2 18.3442 8.69736 5.24148 N.2 0 **** -0.374
4233 N3 16.3316 7.36484 5.42894 N.2 0 **** -0.374
4234 N4 15.3636 8.35864 5.54572 N.2 0 **** 0.856
4235 O1 18.4564 9.87969 7.12261 O.2 0 **** -0.428
4236 O2 18.9636 10.8294 5.25354 O.2 0 **** -0.428
4237 O3 14.2663 8.12169 5.09182 O.2 0 **** -0.428
4238 O4 15.6917 9.38765 6.095 O.2 0 **** -0.428
4239 H 17.6816 7.76798 6.99418 H 0 **** 0.053
4240 H 18.3246 6.65887 5.80608 H 0 **** 0.053
4241 H 19.6068 8.87238 3.58397 H 0 **** 0.053
4242 H 17.9774 9.45473 3.31501 H 0 **** 0.053
4243 C1 16.8538 7.14098 2.73287 C.3 0 **** 0.268
4244 C2 16.0105 6.06008 4.83657 C.3 0 **** 0.268
4245 N1 15.9569 4.82298 2.72137 N.2 0 **** 0.856
4246 N2 16.2152 6.01067 3.40114 N.2 0 **** -0.374
4247 N3 18.2278 7.34319 3.21367 N.2 0 **** -0.374
4248 N4 19.1959 6.34939 3.0969 N.2 0 **** 0.856
4249 O1 16.1031 4.82834 1.52 O.2 0 **** -0.428
4250 O2 15.5959 3.87864 3.38907 O.2 0 **** -0.428
4251 O3 20.2932 6.58634 3.5508 O.2 0 **** -0.428
4252 O4 18.8677 5.32038 2.54761 O.2 0 **** -0.428
4253 H 16.8778 6.94005 1.64843 H 0 **** 0.053
4254 H 16.2348 8.04916 2.83654 H 0 **** 0.053
4255 H 14.9527 5.83565 5.05864 H 0 **** 0.053
4256 H 16.5821 5.2533 5.3276 H 0 **** 0.053
4257 C1 4.52403 12.4697 5.90975 C.3 0 **** 0.268
4258 C2 5.36732 13.5506 3.80604 C.3 0 **** 0.268
4259 N1 5.42085 14.7877 5.92124 N.2 0 **** 0.856
4260 N2 5.16255 13.6 5.24148 N.2 0 **** -0.374
4261 N3 3.14996 12.2675 5.42894 N.2 0 **** -0.374
4262 N4 2.18194 13.2613 5.54572 N.2 0 **** 0.856
4263 O1 5.2747 14.7824 7.12261 O.2 0 **** -0.428
4264 O2 5.78189 15.7321 5.25354 O.2 0 **** -0.428
4265 O3 1.0846 13.0244 5.09182 O.2 0 **** -0.428
4266 O4 2.51006 14.2903 6.095 O.2 0 **** -0.428
4267 H 4.49996 12.6707 6.99418 H 0 **** 0.053
4268 H 5.14296 11.5616 5.80608 H 0 **** 0.053
4269 H 6.42512 13.7751 3.58397 H 0 **** 0.053
4270 H 4.79571 14.3574 3.31501 H 0 **** 0.053
4271 C1 3.6721 12.0437 2.73287 C.3 0 **** 0.268
4272 C2 2.82881 10.9628 4.83657 C.3 0 **** 0.268
4273 N1 2.77529 9.72565 2.72137 N.2 0 **** 0.856
4274 N2 3.03358 10.9133 3.40114 N.2 0 **** -0.374
4275 N3 5.04617 12.2459 3.21367 N.2 0 **** -0.374
4276 N4 6.0142 11.2521 3.0969 N.2 0 **** 0.856
4277 O1 2.92144 9.73101 1.52 O.2 0 **** -0.428
4278 O2 2.41424 8.78132 3.38907 O.2 0 **** -0.428
4279 O3 7.11153 11.489 3.5508 O.2 0 **** -0.428
4280 O4 5.68608 10.2231 2.54761 O.2 0 **** -0.428
4281 H 3.69617 11.8427 1.64843 H 0 **** 0.053
4282 H 3.05317 12.9518 2.83654 H 0 **** 0.053
4283 H 1.77102 10.7383 5.05864 H 0 **** 0.053
4284 H 3.40042 10.156 5.3276 H 0 **** 0.053
4285 C1 8.44264 7.56705 11.9346 C.3 0 **** 0.268
4286 C2 9.28593 8.64795 9.83085 C.3 0 **** 0.268
4287 N1 9.33946 9.88505 11.946 N.2 0 **** 0.856
4288 N2 9.08116 8.69736 11.2663 N.2 0 **** -0.374
4289 N3 7.06857 7.36484 11.4537 N.2 0 **** -0.374
4290 N4 6.10054 8.35864 11.5705 N.2 0 **** 0.856
4291 O1 9.19331 9.87969 13.1474 O.2 0 **** -0.428
4292 O2 9.7005 10.8294 11.2783 O.2 0 **** -0.428
4293 O3 5.00321 8.12169 11.1166 O.2 0 **** -0.428
4294 O4 6.42866 9.38765 12.1198 O.2 0 **** -0.428
4295 H 8.41857 7.76798 13.019 H 0 **** 0.053
4296 H 9.06157 6.65887 11.8309 H 0 **** 0.053
4297 H 10.3437 8.87238 9.60877 H 0 **** 0.053
4298 H 8.71432 9.45473 9.33982 H 0 **** 0.053
4299 C1 7.59071 7.14098 8.75767 C.3 0 **** 0.268
4300 C2 6.74742 6.06008 10.8614 C.3 0 **** 0.268
4301 N1 6.69389 4.82298 8.74618 N.2 0 **** 0.856
4302 N2 6.95219 6.01067 9.42594 N.2 0 **** -0.374
4303 N3 8.96478 7.34319 9.23848 N.2 0 **** -0.374
4304 N4 9.93281 6.34939 9.1217 N.2 0 **** 0.856
4305 O1 6.84004 4.82834 7.54481 O.2 0 **** -0.428
4306 O2 6.33285 3.87864 9.41388 O.2 0 **** -0.428
4307 O3 11.0301 6.58634 9.5756 O.2 0 **** -0.428
4308 O4 9.60469 5.32038 8.57242 O.2 0 **** -0.428
4309 H 7.61478 6.94005 7.67323 H 0 **** 0.053
4310 H 6.97178 8.04916 8.86134 H 0 **** 0.053
4311 H 5.68963 5.83565 11.0834 H 0 **** 0.053
4312 H 7.31903 5.2533 11.3524 H 0 **** 0.053
4313 C1 12.3612 2.66437 17.9594 C.3 0 **** 0.268
4314 C2 13.2045 3.74527 15.8557 C.3 0 **** 0.268
4315 N1 13.2581 4.98238 17.9709 N.2 0 **** 0.856
4316 N2 12.9998 3.79468 17.2911 N.2 0 **** -0.374
4317 N3 10.9872 2.46216 17.4786 N.2 0 **** -0.374
4318 N4 10.0192 3.45597 17.5953 N.2 0 **** 0.856
4319 O1 13.1119 4.97702 19.1722 O.2 0 **** -0.428
4320 O2 13.6191 5.92671 17.3032 O.2 0 **** -0.428
4321 O3 8.92182 3.21902 17.1414 O.2 0 **** -0.428
4322 O4 10.3473 4.48498 18.1446 O.2 0 **** -0.428
4323 H 12.3372 2.8653 19.0438 H 0 **** 0.053
4324 H 12.9802 1.7562 17.8557 H 0 **** 0.053
4325 H 14.2623 3.9697 15.6336 H 0 **** 0.053
4326 H 12.6329 4.55205 15.3646 H 0 **** 0.053
4327 C1 11.5093 2.2383 14.7825 C.3 0 **** 0.268
4328 C2 10.666 1.15741 16.8862 C.3 0 **** 0.268
4329 N1 10.6125 -0.0796989 14.771 N.2 0 **** 0.856
4330 N2 10.8708 1.10799 15.4507 N.2 0 **** -0.374
4331 N3 12.8834 2.44052 15.2633 N.2 0 **** -0.374
4332 N4 13.8514 1.44671 15.1465 N.2 0 **** 0.856
4333 O1 10.7587 -0.0743411 13.5696 O.2 0 **** -0.428
4334 O2 10.2515 -1.02404 15.4387 O.2 0 **** -0.428
4335 O3 14.9487 1.68366 15.6004 O.2 0 **** -0.428
4336 O4 13.5233 0.4177 14.5972 O.2 0 **** -0.428
4337 H 11.5334 2.03738 13.698 H 0 **** 0.053
4338 H 10.8904 3.14648 14.8861 H 0 **** 0.053
4339 H 9.60823 0.932972 17.1083 H 0 **** 0.053
4340 H 11.2376 0.350628 17.3772 H 0 **** 0.053
4341 C1 3.09819 2.66437 23.9842 C.3 0 **** 0.268
4342 C2 3.94148 3.74527 21.8805 C.3 0 **** 0.268
4343 N1 3.99501 4.98238 23.9957 N.2 0 **** 0.856
4344 N2 3.73671 3.79468 23.3159 N.2 0 **** -0.374
4345 N3 1.72412 2.46216 23.5034 N.2 0 **** -0.374
4346 N4 0.756093 3.45597 23.6201 N.2 0 **** 0.856
4347 O1 3.84886 4.97702 25.197 O.2 0 **** -0.428
4348 O2 4.35605 5.92671 23.328 O.2 0 **** -0.428
4349 O3 -0.341237 3.21902 23.1662 O.2 0 **** -0.428
4350 O4 1.08421 4.48498 24.1694 O.2 0 **** -0.428
4351 H 3.07412 2.8653 25.0686 H 0 **** 0.053
4352 H 3.71712 1.7562 23.8805 H 0 **** 0.053
4353 H 4.99927 3.9697 21.6584 H 0 **** 0.053
4354 H 3.36987 4.55205 21.3894 H 0 **** 0.053
4355 C1 2.24626 2.2383 20.8073 C.3 0 **** 0.268
4356 C2 1.40297 1.15741 22.911 C.3 0 **** 0.268
4357 N1 1.34944 -0.079699 20.7958 N.2 0 **** 0.856
4358 N2 1.60774 1.10799 21.4756 N.2 0 **** -0.374
4359 N3 3.62033 2.44052 21.2881 N.2 0 **** -0.374
4360 N4 4.58836 1.44671 21.1713 N.2 0 **** 0.856
4361 O1 1.49559 -0.0743412 19.5944 O.2 0 **** -0.428
4362 O2 0.988402 -1.02404 21.4635 O.2 0 **** -0.428
4363 O3 5.68569 1.68366 21.6252 O.2 0 **** -0.428
4364 O4 4.26024 0.417699 20.622 O.2 0 **** -0.428
4365 H 2.27033 2.03738 19.7228 H 0 **** 0.053
4366 H 1.62733 3.14648 20.911 H 0 **** 0.053
4367 H 0.345177 0.932972 23.1331 H 0 **** 0.053
4368 H 1.97458 0.350628 23.402 H 0 **** 0.053
4369 C1 30.8874 9.20437 5.90975 C.3 0 **** 0.268
4370 C2 31.7306 10.2853 3.80604 C.3 0 **** 0.268
4371 N1 31.7842 11.5224 5.92124 N.2 0 **** 0.856
4372 N2 31.5259 10.3347 5.24148 N.2 0 **** -0.374
4373 N3 29.5133 9.00216 5.42894 N.2 0 **** -0.374
4374 N4 28.5453 9.99597 5.54572 N.2 0 **** 0.856
4375 O1 31.638 11.517 7.12261 O.2 0 **** -0.428
4376 O2 32.1452 12.4667 5.25354 O.2 0 **** -0.428
4377 O3 27.4479 9.75902 5.09182 O.2 0 **** -0.428
4378 O4 28.8734 11.025 6.095 O.2 0 **** -0.428
4379 H 30.8633 9.4053 6.99418 H 0 **** 0.053
4380 H 31.5063 8.2962 5.80608 H 0 **** 0.053
4381 H 32.7884 10.5097 3.58397 H 0 **** 0.053
4382 H 31.159 11.092 3.31501 H 0 **** 0.053
4383 C1 30.0354 8.7783 2.73287 C.3 0 **** 0.268
4384 C2 29.1921 7.69741 4.83657 C.3 0 **** 0.268
4385 N1 29.1386 6.4603 2.72137 N.2 0 **** 0.856
4386 N2 29.3969 7.64799 3.40114 N.2 0 **** -0.374
4387 N3 31.4095 8.98052 3.21367 N.2 0 **** -0.374
4388 N4 32.3775 7.98671 3.0969 N.2 0 **** 0.856
4389 O1 29.2848 6.46566 1.52 O.2 0 **** -0.428
4390 O2 28.7776 5.51596 3.38907 O.2 0 **** -0.428
4391 O3 33.4749 8.22366 3.5508 O.2 0 **** -0.428
4392 O4 32.0494 6.9577 2.54761 O.2 0 **** -0.428
4393 H 30.0595 8.57738 1.64843 H 0 **** 0.053
4394 H 29.4165 9.68648 2.83654 H 0 **** 0.053
4395 H 28.1343 7.47297 5.05864 H 0 **** 0.053
4396 H 29.7637 6.89063 5.3276 H 0 **** 0.053
4397 C1 17.7057 14.107 5.90975 C.3 0 **** 0.268
4398 C2 18.549 15.1879 3.80604 C.3 0 **** 0.268
4399 N1 18.6025 16.4251 5.92124 N.2 0 **** 0.856
4400 N2 18.3442 15.2374 5.24148 N.2 0 **** -0.374
4401 N3 16.3316 13.9048 5.42894 N.2 0 **** -0.374
4402 N4 15.3636 14.8986 5.54572 N.2 0 **** 0.856
4403 O1 18.4564 16.4197 7.12261 O.2 0 **** -0.428
4404 O2 18.9636 17.3694 5.25354 O.2 0 **** -0.428
4405 O3 14.2663 14.6617 5.09182 O.2 0 **** -0.428
4406 O4 15.6917 15.9277 6.095 O.2 0 **** -0.428
4407 H 17.6816 14.308 6.99418 H 0 **** 0.053
4408 H 18.3246 13.1989 5.80608 H 0 **** 0.053
4409 H 19.6068 15.4124 3.58397 H 0 **** 0.053
4410 H 17.9774 15.9947 3.31501 H 0 **** 0.053
4411 C1 16.8538 13.681 2.73287 C.3 0 **** 0.268
4412 C2 16.0105 12.6001 4.83657 C.3 0 **** 0.268
4413 N1 15.9569 11.363 2.72137 N.2 0 **** 0.856
4414 N2 16.2152 12.5507 3.40114 N.2 0 **** -0.374
4415 N3 18.2278 13.8832 3.21367 N.2 0 **** -0.374
4416 N4 19.1959 12.8894 3.0969 N.2 0 **** 0.856
4417 O1 16.1031 11.3683 1.52 O.2 0 **** -0.428
4418 O2 15.5959 10.4186 3.38907 O.2 0 **** -0.428
4419 O3 20.2932 13.1263 3.5508 O.2 0 **** -0.428
4420 O4 18.8677 11.8604 2.54761 O.2 0 **** -0.428
4421 H 16.8778 13.4801 1.64843 H 0 **** 0.053
4422 H 16.2348 14.5892 2.83654 H 0 **** 0.053
4423 H 14.9527 12.3756 5.05864 H 0 **** 0.053
4424 H 16.5821 11.7933 5.3276 H 0 **** 0.053
4425 C1 21.6243 9.20437 11.9346 C.3 0 **** 0.268
4426 C2 22.4676 10.2853 9.83085 C.3 0 **** 0.268
4427 N1 22.5211 11.5224 11.946 N.2 0 **** 0.856
4428 N2 22.2628 10.3347 11.2663 N.2 0 **** -0.374
4429 N3 20.2502 9.00216 11.4537 N.2 0 **** -0.374
4430 N4 19.2822 9.99597 11.5705 N.2 0 **** 0.856
4431 O1 22.375 11.517 13.1474 O.2 0 **** -0.428
4432 O2 22.8822 12.4667 11.2783 O.2 0 **** -0.428
4433 O3 18.1849 9.75902 11.1166 O.2 0 **** -0.428
4434 O4 19.6103 11.025 12.1198 O.2 0 **** -0.428
4435 H 21.6002 9.4053 13.019 H 0 **** 0.053
4436 H 22.2432 8.2962 11.8309 H 0 **** 0.053
4437 H 23.5254 10.5097 9.60877 H 0 **** 0.053
4438 H 21.896 11.092 9.33982 H 0 **** 0.053
4439 C1 20.7724 8.7783 8.75767 C.3 0 **** 0.268
4440 C2 19.9291 7.69741 10.8614 C.3 0 **** 0.268
4441 N1 19.8756 6.4603 8.74618 N.2 0 **** 0.856
4442 N2 20.1339 7.64799 9.42594 N.2 0 **** -0.374
4443 N3 22.1464 8.98052 9.23848 N.2 0 **** -0.374
4444 N4 23.1145 7.98671 9.1217 N.2 0 **** 0.856
4445 O1 20.0217 6.46566 7.54481 O.2 0 **** -0.428
4446 O2 19.5145 5.51596 9.41388 O.2 0 **** -0.428
4447 O3 24.2118 8.22366 9.5756 O.2 0 **** -0.428
4448 O4 22.7863 6.9577 8.57242 O.2 0 **** -0.428
4449 H 20.7964 8.57738 7.67323 H 0 **** 0.053
4450 H 20.1534 9.68648 8.86134 H 0 **** 0.053
4451 H 18.8713 7.47297 11.0834 H 0 **** 0.053
4452 H 20.5007 6.89063 11.3524 H 0 **** 0.053
4453 C1 25.5429 4.3017 17.9594 C.3 0 **** 0.268
4454 C2 26.3862 5.38259 15.8557 C.3 0 **** 0.268
4455 N1 26.4397 6.6197 17.9709 N.2 0 **** 0.856
4456 N2 26.1814 5.43201 17.2911 N.2 0 **** -0.374
4457 N3 24.1688 4.09948 17.4786 N.2 0 **** -0.374
4458 N4 23.2008 5.09329 17.5953 N.2 0 **** 0.856
4459 O1 26.2936 6.61434 19.1722 O.2 0 **** -0.428
4460 O2 26.8008 7.56404 17.3032 O.2 0 **** -0.428
4461 O3 22.1035 4.85634 17.1414 O.2 0 **** -0.428
4462 O4 23.5289 6.1223 18.1446 O.2 0 **** -0.428
4463 H 25.5188 4.50262 19.0438 H 0 **** 0.053
4464 H 26.1618 3.39352 17.8557 H 0 **** 0.053
4465 H 27.444 5.60703 15.6336 H 0 **** 0.053
4466 H 25.8146 6.18937 15.3646 H 0 **** 0.053
4467 C1 24.691 3.87563 14.7825 C.3 0 **** 0.268
4468 C2 23.8477 2.79473 16.8862 C.3 0 **** 0.268
4469 N1 23.7942 1.55762 14.771 N.2 0 **** 0.856
4470 N2 24.0525 2.74532 15.4507 N.2 0 **** -0.374
4471 N3 26.065 4.07784 15.2633 N.2 0 **** -0.374
4472 N4 27.0331 3.08403 15.1465 N.2 0 **** 0.856
4473 O1 23.9403 1.56298 13.5696 O.2 0 **** -0.428
4474 O2 23.4331 0.613286 15.4387 O.2 0 **** -0.428
4475 O3 28.1304 3.32098 15.6004 O.2 0 **** -0.428
4476 O4 26.705 2.05502 14.5972 O.2 0 **** -0.428
4477 H 24.715 3.6747 13.698 H 0 **** 0.053
4478 H 24.0721 4.7838 14.8861 H 0 **** 0.053
4479 H 22.7899 2.5703 17.1083 H 0 **** 0.053
4480 H 24.4193 1.98795 17.3772 H 0 **** 0.053
4481 C1 4.52403 19.0097 5.90975 C.3 0 **** 0.268
4482 C2 5.36732 20.0906 3.80604 C.3 0 **** 0.268
4483 N1 5.42085 21.3277 5.92124 N.2 0 **** 0.856
4484 N2 5.16255 20.14 5.24148 N.2 0 **** -0.374
4485 N3 3.14996 18.8075 5.42894 N.2 0 **** -0.374
4486 N4 2.18194 19.8013 5.54572 N.2 0 **** 0.856
4487 O1 5.2747 21.3224 7.12261 O.2 0 **** -0.428
4488 O2 5.78189 22.2721 5.25354 O.2 0 **** -0.428
4489 O3 1.0846 19.5644 5.09182 O.2 0 **** -0.428
4490 O4 2.51006 20.8303 6.095 O.2 0 **** -0.428
4491 H 4.49996 19.2107 6.99418 H 0 **** 0.053
4492 H 5.14296 18.1016 5.80608 H 0 **** 0.053
4493 H 6.42512 20.3151 3.58397 H 0 **** 0.053
4494 H 4.79571 20.8974 3.31501 H 0 **** 0.053
4495 C1 3.6721 18.5837 2.73287 C.3 0 **** 0.268
4496 C2 2.82881 17.5028 4.83657 C.3 0 **** 0.268
4497 N1 2.77529 16.2657 2.72137 N.2 0 **** 0.856
4498 N2 3.03358 17.4533 3.40114 N.2 0 **** -0.374
4499 N3 5.04617 18.7859 3.21367 N.2 0 **** -0.374
4500 N4 6.0142 17.7921 3.0969 N.2 0 **** 0.856
4501 O1 2.92144 16.271 1.52 O.2 0 **** -0.428
4502 O2 2.41424 15.3213 3.38907 O.2 0 **** -0.428
4503 O3 7.11153 18.029 3.5508 O.2 0 **** -0.428
4504 O4 5.68608 16.7631 2.54761 O.2 0 **** -0.428
4505 H 3.69617 18.3827 1.64843 H 0 **** 0.053
4506 H 3.05317 19.4918 2.83654 H 0 **** 0.053
4507 H 1.77102 17.2783 5.05864 H 0 **** 0.053
4508 H 3.40042 16.696 5.3276 H 0 **** 0.053
4509 C1 8.44264 14.107 11.9346 C.3 0 **** 0.268
4510 C2 9.28593 15.1879 9.83085 C.3 0 **** 0.268
4511 N1 9.33946 16.4251 11.946 N.2 0 **** 0.856
4512 N2 9.08116 15.2374 11.2663 N.2 0 **** -0.374
4513 N3 7.06857 13.9048 11.4537 N.2 0 **** -0.374
4514 N4 6.10054 14.8986 11.5705 N.2 0 **** 0.856
4515 O1 9.19331 16.4197 13.1474 O.2 0 **** -0.428
4516 O2 9.7005 17.3694 11.2783 O.2 0 **** -0.428
4517 O3 5.00321 14.6617 11.1166 O.2 0 **** -0.428
4518 O4 6.42866 15.9277 12.1198 O.2 0 **** -0.428
4519 H 8.41857 14.308 13.019 H 0 **** 0.053
4520 H 9.06157 13.1989 11.8309 H 0 **** 0.053
4521 H 10.3437 15.4124 9.60877 H 0 **** 0.053
4522 H 8.71432 15.9947 9.33982 H 0 **** 0.053
4523 C1 7.59071 13.681 8.75767 C.3 0 **** 0.268
4524 C2 6.74742 12.6001 10.8614 C.3 0 **** 0.268
4525 N1 6.69389 11.363 8.74618 N.2 0 **** 0.856
4526 N2 6.95219 12.5507 9.42594 N.2 0 **** -0.374
4527 N3 8.96478 13.8832 9.23848 N.2 0 **** -0.374
4528 N4 9.93281 12.8894 9.1217 N.2 0 **** 0.856
4529 O1 6.84004 11.3683 7.54481 O.2 0 **** -0.428
4530 O2 6.33285 10.4186 9.41388 O.2 0 **** -0.428
4531 O3 11.0301 13.1263 9.5756 O.2 0 **** -0.428
4532 O4 9.60469 11.8604 8.57242 O.2 0 **** -0.428
4533 H 7.61478 13.4801 7.67323 H 0 **** 0.053
4534 H 6.97178 14.5892 8.86134 H 0 **** 0.053
4535 H 5.68963 12.3756 11.0834 H 0 **** 0.053
4536 H 7.31903 11.7933 11.3524 H 0 **** 0.053
4537 C1 12.3612 9.20437 17.9594 C.3 0 **** 0.268
4538 C2 13.2045 10.2853 15.8557 C.3 0 **** 0.268
4539 N1 13.2581 11.5224 17.9709 N.2 0 **** 0.856
4540 N2 12.9998 10.3347 17.2911 N.2 0 **** -0.374
4541 N3 10.9872 9.00216 17.4786 N.2 0 **** -0.374
4542 N4 10.0192 9.99597 17.5953 N.2 0 **** 0.856
4543 O1 13.1119 11.517 19.1722 O.2 0 **** -0.428
4544 O2 13.6191 12.4667 17.3032 O.2 0 **** -0.428
4545 O3 8.92182 9.75902 17.1414 O.2 0 **** -0.428
4546 O4 10.3473 11.025 18.1446 O.2 0 **** -0.428
4547 H 12.3372 9.4053 19.0438 H 0 **** 0.053
4548 H 12.9802 8.2962 17.8557 H 0 **** 0.053
4549 H 14.2623 10.5097 15.6336 H 0 **** 0.053
4550 H 12.6329 11.092 15.3646 H 0 **** 0.053
4551 C1 11.5093 8.7783 14.7825 C.3 0 **** 0.268
4552 C2 10.666 7.69741 16.8862 C.3 0 **** 0.268
4553 N1 10.6125 6.4603 14.771 N.2 0 **** 0.856
4554 N2 10.8708 7.64799 15.4507 N.2 0 **** -0.374
4555 N3 12.8834 8.98052 15.2633 N.2 0 **** -0.374
4556 N4 13.8514 7.98671 15.1465 N.2 0 **** 0.856
4557 O1 10.7587 6.46566 13.5696 O.2 0 **** -0.428
4558 O2 10.2515 5.51596 15.4387 O.2 0 **** -0.428
4559 O3 14.9487 8.22366 15.6004 O.2 0 **** -0.428
4560 O4 13.5233 6.9577 14.5972 O.2 0 **** -0.428
4561 H 11.5334 8.57738 13.698 H 0 **** 0.053
4562 H 10.8904 9.68648 14.8861 H 0 **** 0.053
4563 H 9.60823 7.47297 17.1083 H 0 **** 0.053
4564 H 11.2376 6.89063 17.3772 H 0 **** 0.053
4565 C1 16.2799 4.3017 23.9842 C.3 0 **** 0.268
4566 C2 17.1231 5.38259 21.8805 C.3 0 **** 0.268
4567 N1 17.1767 6.6197 23.9957 N.2 0 **** 0.856
4568 N2 16.9184 5.43201 23.3159 N.2 0 **** -0.374
4569 N3 14.9058 4.09948 23.5034 N.2 0 **** -0.374
4570 N4 13.9378 5.09329 23.6201 N.2 0 **** 0.856
4571 O1 17.0305 6.61434 25.197 O.2 0 **** -0.428
4572 O2 17.5377 7.56404 23.328 O.2 0 **** -0.428
4573 O3 12.8404 4.85634 23.1662 O.2 0 **** -0.428
4574 O4 14.2659 6.1223 24.1694 O.2 0 **** -0.428
4575 H 16.2558 4.50262 25.0686 H 0 **** 0.053
4576 H 16.8988 3.39352 23.8805 H 0 **** 0.053
4577 H 18.1809 5.60703 21.6584 H 0 **** 0.053
4578 H 16.5515 6.18937 21.3894 H 0 **** 0.053
4579 C1 15.4279 3.87563 20.8073 C.3 0 **** 0.268
4580 C2 14.5846 2.79473 22.911 C.3 0 **** 0.268
4581 N1 14.5311 1.55762 20.7958 N.2 0 **** 0.856
4582 N2 14.7894 2.74532 21.4756 N.2 0 **** -0.374
4583 N3 16.802 4.07784 21.2881 N.2 0 **** -0.374
4584 N4 17.77 3.08403 21.1713 N.2 0 **** 0.856
4585 O1 14.6773 1.56298 19.5944 O.2 0 **** -0.428
4586 O2 14.1701 0.613286 21.4635 O.2 0 **** -0.428
4587 O3 18.8674 3.32098 21.6252 O.2 0 **** -0.428
4588 O4 17.4419 2.05502 20.622 O.2 0 **** -0.428
4589 H 15.452 3.6747 19.7228 H 0 **** 0.053
4590 H 14.809 4.7838 20.911 H 0 **** 0.053
4591 H 13.5268 2.5703 23.1331 H 0 **** 0.053
4592 H 15.1562 1.98795 23.402 H 0 **** 0.053
4593 C1 3.09819 9.20437 23.9842 C.3 0 **** 0.268
4594 C2 3.94148 10.2853 21.8805 C.3 0 **** 0.268
4595 N1 3.99501 11.5224 23.9957 N.2 0 **** 0.856
4596 N2 3.73671 10.3347 23.3159 N.2 0 **** -0.374
4597 N3 1.72412 9.00216 23.5034 N.2 0 **** -0.374
4598 N4 0.756093 9.99597 23.6201 N.2 0 **** 0.856
4599 O1 3.84886 11.517 25.197 O.2 0 **** -0.428
4600 O2 4.35605 12.4667 23.328 O.2 0 **** -0.428
4601 O3 -0.341237 9.75902 23.1662 O.2 0 **** -0.428
4602 O4 1.08421 11.025 24.1694 O.2 0 **** -0.428
4603 H 3.07412 9.4053 25.0686 H 0 **** 0.053
4604 H 3.71712 8.2962 23.8805 H 0 **** 0.053
4605 H 4.99927 10.5097 21.6584 H 0 **** 0.053
4606 H 3.36987 11.092 21.3894 H 0 **** 0.053
4607 C1 2.24626 8.7783 20.8073 C.3 0 **** 0.268
4608 C2 1.40297 7.69741 22.911 C.3 0 **** 0.268
4609 N1 1.34944 6.4603 20.7958 N.2 0 **** 0.856
4610 N2 1.60774 7.64799 21.4756 N.2 0 **** -0.374
4611 N3 3.62033 8.98052 21.2881 N.2 0 **** -0.374
4612 N4 4.58836 7.98671 21.1713 N.2 0 **** 0.856
4613 O1 1.49559 6.46566 19.5944 O.2 0 **** -0.428
4614 O2 0.988402 5.51596 21.4635 O.2 0 **** -0.428
4615 O3 5.68569 8.22366 21.6252 O.2 0 **** -0.428
4616 O4 4.26024 6.9577 20.622 O.2 0 **** -0.428
4617 H 2.27033 8.57738 19.7228 H 0 **** 0.053
4618 H 1.62733 9.68648 20.911 H 0 **** 0.053
4619 H 0.345177 7.47297 23.1331 H 0 **** 0.053
4620 H 1.97458 6.89063 23.402 H 0 **** 0.053
4621 C1 7.0168 4.3017 30.009 C.3 0 **** 0.268
4622 C2 7.86009 5.38259 27.9053 C.3 0 **** 0.268
4623 N1 7.91361 6.6197 30.0205 N.2 0 **** 0.856
4624 N2 7.65532 5.43201 29.3407 N.2 0 **** -0.374
4625 N3 5.64273 4.09948 29.5282 N.2 0 **** -0.374
4626 N4 4.6747 5.09329 29.6449 N.2 0 **** 0.856
4627 O1 7.76746 6.61434 31.2218 O.2 0 **** -0.428
4628 O2 8.27465 7.56404 29.3528 O.2 0 **** -0.428
4629 O3 3.57737 4.85634 29.191 O.2 0 **** -0.428
4630 O4 5.00282 6.1223 30.1942 O.2 0 **** -0.428
4631 H 6.99273 4.50262 31.0934 H 0 **** 0.053
4632 H 7.63572 3.39352 29.9053 H 0 **** 0.053
4633 H 8.91788 5.60703 27.6832 H 0 **** 0.053
4634 H 7.28848 6.18937 27.4142 H 0 **** 0.053
4635 C1 6.16487 3.87563 26.8321 C.3 0 **** 0.268
4636 C2 5.32158 2.79473 28.9358 C.3 0 **** 0.268
4637 N1 5.26805 1.55762 26.8206 N.2 0 **** 0.856
4638 N2 5.52635 2.74532 27.5004 N.2 0 **** -0.374
4639 N3 7.53894 4.07784 27.3129 N.2 0 **** -0.374
4640 N4 8.50696 3.08403 27.1961 N.2 0 **** 0.856
4641 O1 5.4142 1.56298 25.6192 O.2 0 **** -0.428
4642 O2 4.90701 0.613286 27.4883 O.2 0 **** -0.428
4643 O3 9.60429 3.32098 27.65 O.2 0 **** -0.428
4644 O4 8.17884 2.05502 26.6468 O.2 0 **** -0.428
4645 H 6.18894 3.6747 25.7477 H 0 **** 0.053
4646 H 5.54594 4.7838 26.9358 H 0 **** 0.053
4647 H 4.26378 2.5703 29.1579 H 0 **** 0.053
4648 H 5.89318 1.98795 29.4268 H 0 **** 0.053
4649 C1 44.069 10.8417 5.90975 C.3 0 **** 0.268
4650 C2 44.9123 11.9226 3.80604 C.3 0 **** 0.268
4651 N1 44.9658 13.1597 5.92124 N.2 0 **** 0.856
4652 N2 44.7075 11.972 5.24148 N.2 0 **** -0.374
4653 N3 42.695 10.6395 5.42894 N.2 0 **** -0.374
4654 N4 41.7269 11.6333 5.54572 N.2 0 **** 0.856
4655 O1 44.8197 13.1543 7.12261 O.2 0 **** -0.428
4656 O2 45.3269 14.104 5.25354 O.2 0 **** -0.428
4657 O3 40.6296 11.3963 5.09182 O.2 0 **** -0.428
4658 O4 42.055 12.6623 6.095 O.2 0 **** -0.428
4659 H 44.045 11.0426 6.99418 H 0 **** 0.053
4660 H 44.688 9.93352 5.80608 H 0 **** 0.053
4661 H 45.9701 12.147 3.58397 H 0 **** 0.053
4662 H 44.3407 12.7294 3.31501 H 0 **** 0.053
4663 C1 43.2171 10.4156 2.73287 C.3 0 **** 0.268
4664 C2 42.3738 9.33473 4.83657 C.3 0 **** 0.268
4665 N1 42.3203 8.09762 2.72137 N.2 0 **** 0.856
4666 N2 42.5786 9.28532 3.40114 N.2 0 **** -0.374
4667 N3 44.5912 10.6178 3.21367 N.2 0 **** -0.374
4668 N4 45.5592 9.62403 3.0969 N.2 0 **** 0.856
4669 O1 42.4664 8.10298 1.52 O.2 0 **** -0.428
4670 O2 41.9592 7.15329 3.38907 O.2 0 **** -0.428
4671 O3 46.6565 9.86098 3.5508 O.2 0 **** -0.428
4672 O4 45.2311 8.59502 2.54761 O.2 0 **** -0.428
4673 H 43.2412 10.2147 1.64843 H 0 **** 0.053
4674 H 42.5982 11.3238 2.83654 H 0 **** 0.053
4675 H 41.316 9.1103 5.05864 H 0 **** 0.053
4676 H 42.9454 8.52795 5.3276 H 0 **** 0.053
4677 C1 30.8874 15.7444 5.90975 C.3 0 **** 0.268
4678 C2 31.7306 16.8253 3.80604 C.3 0 **** 0.268
4679 N1 31.7842 18.0624 5.92124 N.2 0 **** 0.856
4680 N2 31.5259 16.8747 5.24148 N.2 0 **** -0.374
4681 N3 29.5133 15.5422 5.42894 N.2 0 **** -0.374
4682 N4 28.5453 16.536 5.54572 N.2 0 **** 0.856
4683 O1 31.638 18.057 7.12261 O.2 0 **** -0.428
4684 O2 32.1452 19.0067 5.25354 O.2 0 **** -0.428
4685 O3 27.4479 16.299 5.09182 O.2 0 **** -0.428
4686 O4 28.8734 17.565 6.095 O.2 0 **** -0.428
4687 H 30.8633 15.9453 6.99418 H 0 **** 0.053
4688 H 31.5063 14.8362 5.80608 H 0 **** 0.053
4689 H 32.7884 17.0497 3.58397 H 0 **** 0.053
4690 H 31.159 17.632 3.31501 H 0 **** 0.053
4691 C1 30.0354 15.3183 2.73287 C.3 0 **** 0.268
4692 C2 29.1921 14.2374 4.83657 C.3 0 **** 0.268
4693 N1 29.1386 13.0003 2.72137 N.2 0 **** 0.856
4694 N2 29.3969 14.188 3.40114 N.2 0 **** -0.374
4695 N3 31.4095 15.5205 3.21367 N.2 0 **** -0.374
4696 N4 32.3775 14.5267 3.0969 N.2 0 **** 0.856
4697 O1 29.2848 13.0057 1.52 O.2 0 **** -0.428
4698 O2 28.7776 12.056 3.38907 O.2 0 **** -0.428
4699 O3 33.4749 14.7637 3.5508 O.2 0 **** -0.428
4700 O4 32.0494 13.4977 2.54761 O.2 0 **** -0.428
4701 H 30.0595 15.1174 1.64843 H 0 **** 0.053
4702 H 29.4165 16.2265 2.83654 H 0 **** 0.053
4703 H 28.1343 14.013 5.05864 H 0 **** 0.053
4704 H 29.7637 13.4306 5.3276 H 0 **** 0.053
4705 C1 34.806 10.8417 11.9346 C.3 0 **** 0.268
4706 C2 35.6493 11.9226 9.83085 C.3 0 **** 0.268
4707 N1 35.7028 13.1597 11.946 N.2 0 **** 0.856
4708 N2 35.4445 11.972 11.2663 N.2 0 **** -0.374
4709 N3 33.4319 10.6395 11.4537 N.2 0 **** -0.374
4710 N4 32.4639 11.6333 11.5705 N.2 0 **** 0.856
4711 O1 35.5566 13.1543 13.1474 O.2 0 **** -0.428
4712 O2 36.0638 14.104 11.2783 O.2 0 **** -0.428
4713 O3 31.3665 11.3963 11.1166 O.2 0 **** -0.428
4714 O4 32.792 12.6623 12.1198 O.2 0 **** -0.428
4715 H 34.7819 11.0426 13.019 H 0 **** 0.053
4716 H 35.4249 9.93352 11.8309 H 0 **** 0.053
4717 H 36.707 12.147 9.60877 H 0 **** 0.053
4718 H 35.0776 12.7294 9.33982 H 0 **** 0.053
4719 C1 33.954 10.4156 8.75767 C.3 0 **** 0.268
4720 C2 33.1107 9.33473 10.8614 C.3 0 **** 0.268
4721 N1 33.0572 8.09762 8.74618 N.2 0 **** 0.856
4722 N2 33.3155 9.28532 9.42594 N.2 0 **** -0.374
4723 N3 35.3281 10.6178 9.23848 N.2 0 **** -0.374
4724 N4 36.2961 9.62403 9.1217 N.2 0 **** 0.856
4725 O1 33.2034 8.10298 7.54481 O.2 0 **** -0.428
4726 O2 32.6962 7.15329 9.41388 O.2 0 **** -0.428
4727 O3 37.3935 9.86098 9.5756 O.2 0 **** -0.428
4728 O4 35.968 8.59502 8.57242 O.2 0 **** -0.428
4729 H 33.9781 10.2147 7.67323 H 0 **** 0.053
4730 H 33.3351 11.3238 8.86134 H 0 **** 0.053
4731 H 32.053 9.1103 11.0834 H 0 **** 0.053
4732 H 33.6824 8.52795 11.3524 H 0 **** 0.053
4733 C1 38.7246 5.93902 17.9594 C.3 0 **** 0.268
4734 C2 39.5679 7.01992 15.8557 C.3 0 **** 0.268
4735 N1 39.6214 8.25702 17.9709 N.2 0 **** 0.856
4736 N2 39.3631 7.06933 17.2911 N.2 0 **** -0.374
4737 N3 37.3505 5.73681 17.4786 N.2 0 **** -0.374
4738 N4 36.3825 6.73061 17.5953 N.2 0 **** 0.856
4739 O1 39.4752 8.25167 19.1722 O.2 0 **** -0.428
4740 O2 39.9824 9.20136 17.3032 O.2 0 **** -0.428
4741 O3 35.2851 6.49366 17.1414 O.2 0 **** -0.428
4742 O4 36.7106 7.75962 18.1446 O.2 0 **** -0.428
4743 H 38.7005 6.13995 19.0438 H 0 **** 0.053
4744 H 39.3435 5.03084 17.8557 H 0 **** 0.053
4745 H 40.6257 7.24435 15.6336 H 0 **** 0.053
4746 H 38.9963 7.8267 15.3646 H 0 **** 0.053
4747 C1 37.8726 5.51295 14.7825 C.3 0 **** 0.268
4748 C2 37.0294 4.43205 16.8862 C.3 0 **** 0.268
4749 N1 36.9758 3.19495 14.771 N.2 0 **** 0.856
4750 N2 37.2341 4.38264 15.4507 N.2 0 **** -0.374
4751 N3 39.2467 5.71516 15.2633 N.2 0 **** -0.374
4752 N4 40.2147 4.72136 15.1465 N.2 0 **** 0.856
4753 O1 37.122 3.20031 13.5696 O.2 0 **** -0.428
4754 O2 36.6148 2.25061 15.4387 O.2 0 **** -0.428
4755 O3 41.3121 4.95831 15.6004 O.2 0 **** -0.428
4756 O4 39.8866 3.69235 14.5972 O.2 0 **** -0.428
4757 H 37.8967 5.31202 13.698 H 0 **** 0.053
4758 H 37.2537 6.42113 14.8861 H 0 **** 0.053
4759 H 35.9716 4.20762 17.1083 H 0 **** 0.053
4760 H 37.601 3.62528 17.3772 H 0 **** 0.053
4761 C1 17.7057 20.647 5.90975 C.3 0 **** 0.268
4762 C2 18.549 21.7279 3.80604 C.3 0 **** 0.268
4763 N1 18.6025 22.9651 5.92124 N.2 0 **** 0.856
4764 N2 18.3442 21.7774 5.24148 N.2 0 **** -0.374
4765 N3 16.3316 20.4448 5.42894 N.2 0 **** -0.374
4766 N4 15.3636 21.4386 5.54572 N.2 0 **** 0.856
4767 O1 18.4564 22.9597 7.12261 O.2 0 **** -0.428
4768 O2 18.9636 23.9094 5.25354 O.2 0 **** -0.428
4769 O3 14.2663 21.2017 5.09182 O.2 0 **** -0.428
4770 O4 15.6917 22.4677 6.095 O.2 0 **** -0.428
4771 H 17.6816 20.848 6.99418 H 0 **** 0.053
4772 H 18.3246 19.7389 5.80608 H 0 **** 0.053
4773 H 19.6068 21.9524 3.58397 H 0 **** 0.053
4774 H 17.9774 22.5347 3.31501 H 0 **** 0.053
4775 C1 16.8538 20.221 2.73287 C.3 0 **** 0.268
4776 C2 16.0105 19.1401 4.83657 C.3 0 **** 0.268
4777 N1 15.9569 17.903 2.72137 N.2 0 **** 0.856
4778 N2 16.2152 19.0907 3.40114 N.2 0 **** -0.374
4779 N3 18.2278 20.4232 3.21367 N.2 0 **** -0.374
4780 N4 19.1959 19.4294 3.0969 N.2 0 **** 0.856
4781 O1 16.1031 17.9083 1.52 O.2 0 **** -0.428
4782 O2 15.5959 16.9586 3.38907 O.2 0 **** -0.428
4783 O3 20.2932 19.6663 3.5508 O.2 0 **** -0.428
4784 O4 18.8677 18.4004 2.54761 O.2 0 **** -0.428
4785 H 16.8778 20.0201 1.64843 H 0 **** 0.053
4786 H 16.2348 21.1292 2.83654 H 0 **** 0.053
4787 H 14.9527 18.9156 5.05864 H 0 **** 0.053
4788 H 16.5821 18.3333 5.3276 H 0 **** 0.053
4789 C1 21.6243 15.7444 11.9346 C.3 0 **** 0.268
4790 C2 22.4676 16.8253 9.83085 C.3 0 **** 0.268
4791 N1 22.5211 18.0624 11.946 N.2 0 **** 0.856
4792 N2 22.2628 16.8747 11.2663 N.2 0 **** -0.374
4793 N3 20.2502 15.5422 11.4537 N.2 0 **** -0.374
4794 N4 19.2822 16.536 11.5705 N.2 0 **** 0.856
4795 O1 22.375 18.057 13.1474 O.2 0 **** -0.428
4796 O2 22.8822 19.0067 11.2783 O.2 0 **** -0.428
4797 O3 18.1849 16.299 11.1166 O.2 0 **** -0.428
4798 O4 19.6103 17.565 12.1198 O.2 0 **** -0.428
4799 H 21.6002 15.9453 13.019 H 0 **** 0.053
4800 H 22.2432 14.8362 11.8309 H 0 **** 0.053
4801 H 23.5254 17.0497 9.60877 H 0 **** 0.053
4802 H 21.896 17.632 9.33982 H 0 **** 0.053
4803 C1 20.7724 15.3183 8.75767 C.3 0 **** 0.268
4804 C2 19.9291 14.2374 10.8614 C.3 0 **** 0.268
4805 N1 19.8756 13.0003 8.74618 N.2 0 **** 0.856
4806 N2 20.1339 14.188 9.42594 N.2 0 **** -0.374
4807 N3 22.1464 15.5205 9.23848 N.2 0 **** -0.374
4808 N4 23.1145 14.5267 9.1217 N.2 0 **** 0.856
4809 O1 20.0217 13.0057 7.54481 O.2 0 **** -0.428
4810 O2 19.5145 12.056 9.41388 O.2 0 **** -0.428
4811 O3 24.2118 14.7637 9.5756 O.2 0 **** -0.428
4812 O4 22.7863 13.4977 8.57242 O.2 0 **** -0.428
4813 H 20.7964 15.1174 7.67323 H 0 **** 0.053
4814 H 20.1534 16.2265 8.86134 H 0 **** 0.053
4815 H 18.8713 14.013 11.0834 H 0 **** 0.053
4816 H 20.5007 13.4306 11.3524 H 0 **** 0.053
4817 C1 25.5429 10.8417 17.9594 C.3 0 **** 0.268
4818 C2 26.3862 11.9226 15.8557 C.3 0 **** 0.268
4819 N1 26.4397 13.1597 17.9709 N.2 0 **** 0.856
4820 N2 26.1814 11.972 17.2911 N.2 0 **** -0.374
4821 N3 24.1688 10.6395 17.4786 N.2 0 **** -0.374
4822 N4 23.2008 11.6333 17.5953 N.2 0 **** 0.856
4823 O1 26.2936 13.1543 19.1722 O.2 0 **** -0.428
4824 O2 26.8008 14.104 17.3032 O.2 0 **** -0.428
4825 O3 22.1035 11.3963 17.1414 O.2 0 **** -0.428
4826 O4 23.5289 12.6623 18.1446 O.2 0 **** -0.428
4827 H 25.5188 11.0426 19.0438 H 0 **** 0.053
4828 H 26.1618 9.93352 17.8557 H 0 **** 0.053
4829 H 27.444 12.147 15.6336 H 0 **** 0.053
4830 H 25.8146 12.7294 15.3646 H 0 **** 0.053
4831 C1 24.691 10.4156 14.7825 C.3 0 **** 0.268
4832 C2 23.8477 9.33473 16.8862 C.3 0 **** 0.268
4833 N1 23.7942 8.09762 14.771 N.2 0 **** 0.856
4834 N2 24.0525 9.28532 15.4507 N.2 0 **** -0.374
4835 N3 26.065 10.6178 15.2633 N.2 0 **** -0.374
4836 N4 27.0331 9.62403 15.1465 N.2 0 **** 0.856
4837 O1 23.9403 8.10298 13.5696 O.2 0 **** -0.428
4838 O2 23.4331 7.15329 15.4387 O.2 0 **** -0.428
4839 O3 28.1304 9.86098 15.6004 O.2 0 **** -0.428
4840 O4 26.705 8.59502 14.5972 O.2 0 **** -0.428
4841 H 24.715 10.2147 13.698 H 0 **** 0.053
4842 H 24.0721 11.3238 14.8861 H 0 **** 0.053
4843 H 22.7899 9.1103 17.1083 H 0 **** 0.053
4844 H 24.4193 8.52795 17.3772 H 0 **** 0.053
4845 C1 29.4615 5.93902 23.9842 C.3 0 **** 0.268
4846 C2 30.3048 7.01992 21.8805 C.3 0 **** 0.268
4847 N1 30.3583 8.25702 23.9957 N.2 0 **** 0.856
4848 N2 30.1 7.06933 23.3159 N.2 0 **** -0.374
4849 N3 28.0874 5.73681 23.5034 N.2 0 **** -0.374
4850 N4 27.1194 6.73061 23.6201 N.2 0 **** 0.856
4851 O1 30.2122 8.25166 25.197 O.2 0 **** -0.428
4852 O2 30.7194 9.20136 23.328 O.2 0 **** -0.428
4853 O3 26.0221 6.49366 23.1662 O.2 0 **** -0.428
4854 O4 27.4475 7.75962 24.1694 O.2 0 **** -0.428
4855 H 29.4374 6.13995 25.0686 H 0 **** 0.053
4856 H 30.0804 5.03084 23.8805 H 0 **** 0.053
4857 H 31.3626 7.24435 21.6584 H 0 **** 0.053
4858 H 29.7332 7.8267 21.3894 H 0 **** 0.053
4859 C1 28.6096 5.51295 20.8073 C.3 0 **** 0.268
4860 C2 27.7663 4.43205 22.911 C.3 0 **** 0.268
4861 N1 27.7128 3.19495 20.7958 N.2 0 **** 0.856
4862 N2 27.9711 4.38264 21.4756 N.2 0 **** -0.374
4863 N3 29.9837 5.71516 21.2881 N.2 0 **** -0.374
4864 N4 30.9517 4.72136 21.1713 N.2 0 **** 0.856
4865 O1 27.8589 3.20031 19.5944 O.2 0 **** -0.428
4866 O2 27.3517 2.25061 21.4635 O.2 0 **** -0.428
4867 O3 32.049 4.95831 21.6252 O.2 0 **** -0.428
4868 O4 30.6236 3.69235 20.622 O.2 0 **** -0.428
4869 H 28.6337 5.31202 19.7228 H 0 **** 0.053
4870 H 27.9907 6.42113 20.911 H 0 **** 0.053
4871 H 26.7085 4.20762 23.1331 H 0 **** 0.053
4872 H 28.3379 3.62527 23.402 H 0 **** 0.053
4873 C1 4.52403 25.5497 5.90975 C.3 0 **** 0.268
4874 C2 5.36732 26.6306 3.80604 C.3 0 **** 0.268
4875 N1 5.42085 27.8677 5.92124 N.2 0 **** 0.856
4876 N2 5.16255 26.68 5.24148 N.2 0 **** -0.374
4877 N3 3.14996 25.3475 5.42894 N.2 0 **** -0.374
4878 N4 2.18194 26.3413 5.54572 N.2 0 **** 0.856
4879 O1 5.2747 27.8624 7.12261 O.2 0 **** -0.428
4880 O2 5.78189 28.8121 5.25354 O.2 0 **** -0.428
4881 O3 1.0846 26.1044 5.09182 O.2 0 **** -0.428
4882 O4 2.51006 27.3703 6.095 O.2 0 **** -0.428
4883 H 4.49996 25.7507 6.99418 H 0 **** 0.053
4884 H 5.14296 24.6416 5.80608 H 0 **** 0.053
4885 H 6.42512 26.8551 3.58397 H 0 **** 0.053
4886 H 4.79571 27.4374 3.31501 H 0 **** 0.053
4887 C1 3.6721 25.1237 2.73287 C.3 0 **** 0.268
4888 C2 2.82881 24.0428 4.83657 C.3 0 **** 0.268
4889 N1 2.77529 22.8057 2.72137 N.2 0 **** 0.856
4890 N2 3.03358 23.9933 3.40114 N.2 0 **** -0.374
4891 N3 5.04617 25.3259 3.21367 N.2 0 **** -0.374
4892 N4 6.0142 24.3321 3.0969 N.2 0 **** 0.856
4893 O1 2.92144 22.811 1.52 O.2 0 **** -0.428
4894 O2 2.41424 21.8613 3.38907 O.2 0 **** -0.428
4895 O3 7.11153 24.569 3.5508 O.2 0 **** -0.428
4896 O4 5.68608 23.3031 2.54761 O.2 0 **** -0.428
4897 H 3.69617 24.9227 1.64843 H 0 **** 0.053
4898 H 3.05317 26.0318 2.83654 H 0 **** 0.053
4899 H 1.77102 23.8183 5.05864 H 0 **** 0.053
4900 H 3.40042 23.236 5.3276 H 0 **** 0.053
4901 C1 8.44264 20.647 11.9346 C.3 0 **** 0.268
4902 C2 9.28593 21.7279 9.83085 C.3 0 **** 0.268
4903 N1 9.33946 22.9651 11.946 N.2 0 **** 0.856
4904 N2 9.08116 21.7774 11.2663 N.2 0 **** -0.374
4905 N3 7.06857 20.4448 11.4537 N.2 0 **** -0.374
4906 N4 6.10054 21.4386 11.5705 N.2 0 **** 0.856
4907 O1 9.19331 22.9597 13.1474 O.2 0 **** -0.428
4908 O2 9.7005 23.9094 11.2783 O.2 0 **** -0.428
4909 O3 5.00321 21.2017 11.1166 O.2 0 **** -0.428
4910 O4 6.42866 22.4677 12.1198 O.2 0 **** -0.428
4911 H 8.41857 20.848 13.019 H 0 **** 0.053
4912 H 9.06157 19.7389 11.8309 H 0 **** 0.053
4913 H 10.3437 21.9524 9.60877 H 0 **** 0.053
4914 H 8.71432 22.5347 9.33982 H 0 **** 0.053
4915 C1 7.59071 20.221 8.75767 C.3 0 **** 0.268
4916 C2 6.74742 19.1401 10.8614 C.3 0 **** 0.268
4917 N1 6.69389 17.903 8.74618 N.2 0 **** 0.856
4918 N2 6.95219 19.0907 9.42594 N.2 0 **** -0.374
4919 N3 8.96478 20.4232 9.23848 N.2 0 **** -0.374
4920 N4 9.93281 19.4294 9.1217 N.2 0 **** 0.856
4921 O1 6.84004 17.9083 7.54481 O.2 0 **** -0.428
4922 O2 6.33285 16.9586 9.41388 O.2 0 **** -0.428
4923 O3 11.0301 19.6663 9.5756 O.2 0 **** -0.428
4924 O4 9.60469 18.4004 8.57242 O.2 0 **** -0.428
4925 H 7.61478 20.0201 7.67323 H 0 **** 0.053
4926 H 6.97178 21.1292 8.86134 H 0 **** 0.053
4927 H 5.68963 18.9156 11.0834 H 0 **** 0.053
4928 H 7.31903 18.3333 11.3524 H 0 **** 0.053
4929 C1 12.3612 15.7444 17.9594 C.3 0 **** 0.268
4930 C2 13.2045 16.8253 15.8557 C.3 0 **** 0.268
4931 N1 13.2581 18.0624 17.9709 N.2 0 **** 0.856
4932 N2 12.9998 16.8747 17.2911 N.2 0 **** -0.374
4933 N3 10.9872 15.5422 17.4786 N.2 0 **** -0.374
4934 N4 10.0192 16.536 17.5953 N.2 0 **** 0.856
4935 O1 13.1119 18.057 19.1722 O.2 0 **** -0.428
4936 O2 13.6191 19.0067 17.3032 O.2 0 **** -0.428
4937 O3 8.92182 16.299 17.1414 O.2 0 **** -0.428
4938 O4 10.3473 17.565 18.1446 O.2 0 **** -0.428
4939 H 12.3372 15.9453 19.0438 H 0 **** 0.053
4940 H 12.9802 14.8362 17.8557 H 0 **** 0.053
4941 H 14.2623 17.0497 15.6336 H 0 **** 0.053
4942 H 12.6329 17.632 15.3646 H 0 **** 0.053
4943 C1 11.5093 15.3183 14.7825 C.3 0 **** 0.268
4944 C2 10.666 14.2374 16.8862 C.3 0 **** 0.268
4945 N1 10.6125 13.0003 14.771 N.2 0 **** 0.856
4946 N2 10.8708 14.188 15.4507 N.2 0 **** -0.374
4947 N3 12.8834 15.5205 15.2633 N.2 0 **** -0.374
4948 N4 13.8514 14.5267 15.1465 N.2 0 **** 0.856
4949 O1 10.7587 13.0057 13.5696 O.2 0 **** -0.428
4950 O2 10.2515 12.056 15.4387 O.2 0 **** -0.428
4951 O3 14.9487 14.7637 15.6004 O.2 0 **** -0.428
4952 O4 13.5233 13.4977 14.5972 O.2 0 **** -0.428
4953 H 11.5334 15.1174 13.698 H 0 **** 0.053
4954 H 10.8904 16.2265 14.8861 H 0 **** 0.053
4955 H 9.60823 14.013 17.1083 H 0 **** 0.053
4956 H 11.2376 13.4306 17.3772 H 0 **** 0.053
4957 C1 16.2799 10.8417 23.9842 C.3 0 **** 0.268
4958 C2 17.1231 11.9226 21.8805 C.3 0 **** 0.268
4959 N1 17.1767 13.1597 23.9957 N.2 0 **** 0.856
4960 N2 16.9184 11.972 23.3159 N.2 0 **** -0.374
4961 N3 14.9058 10.6395 23.5034 N.2 0 **** -0.374
4962 N4 13.9378 11.6333 23.6201 N.2 0 **** 0.856
4963 O1 17.0305 13.1543 25.197 O.2 0 **** -0.428
4964 O2 17.5377 14.104 23.328 O.2 0 **** -0.428
4965 O3 12.8404 11.3963 23.1662 O.2 0 **** -0.428
4966 O4 14.2659 12.6623 24.1694 O.2 0 **** -0.428
4967 H 16.2558 11.0426 25.0686 H 0 **** 0.053
4968 H 16.8988 9.93352 23.8805 H 0 **** 0.053
4969 H 18.1809 12.147 21.6584 H 0 **** 0.053
4970 H 16.5515 12.7294 21.3894 H 0 **** 0.053
4971 C1 15.4279 10.4156 20.8073 C.3 0 **** 0.268
4972 C2 14.5846 9.33473 22.911 C.3 0 **** 0.268
4973 N1 14.5311 8.09762 20.7958 N.2 0 **** 0.856
4974 N2 14.7894 9.28532 21.4756 N.2 0 **** -0.374
4975 N3 16.802 10.6178 21.2881 N.2 0 **** -0.374
4976 N4 17.77 9.62403 21.1713 N.2 0 **** 0.856
4977 O1 14.6773 8.10298 19.5944 O.2 0 **** -0.428
4978 O2 14.1701 7.15329 21.4635 O.2 0 **** -0.428
4979 O3 18.8674 9.86098 21.6252 O.2 0 **** -0.428
4980 O4 17.4419 8.59502 20.622 O.2 0 **** -0.428
4981 H 15.452 10.2147 19.7228 H 0 **** 0.053
4982 H 14.809 11.3238 20.911 H 0 **** 0.053
4983 H 13.5268 9.1103 23.1331 H 0 **** 0.053
4984 H 15.1562 8.52795 23.402 H 0 **** 0.053
4985 C1 20.1985 5.93902 30.009 C.3 0 **** 0.268
4986 C2 21.0418 7.01992 27.9053 C.3 0 **** 0.268
4987 N1 21.0953 8.25702 30.0205 N.2 0 **** 0.856
4988 N2 20.837 7.06933 29.3407 N.2 0 **** -0.374
4989 N3 18.8244 5.73681 29.5282 N.2 0 **** -0.374
4990 N4 17.8564 6.73061 29.6449 N.2 0 **** 0.856
4991 O1 20.9491 8.25166 31.2218 O.2 0 **** -0.428
4992 O2 21.4563 9.20136 29.3528 O.2 0 **** -0.428
4993 O3 16.759 6.49366 29.191 O.2 0 **** -0.428
4994 O4 18.1845 7.75962 30.1942 O.2 0 **** -0.428
4995 H 20.1744 6.13995 31.0934 H 0 **** 0.053
4996 H 20.8174 5.03084 29.9053 H 0 **** 0.053
4997 H 22.0995 7.24435 27.6832 H 0 **** 0.053
4998 H 20.4701 7.8267 27.4142 H 0 **** 0.053
4999 C1 19.3465 5.51295 26.8321 C.3 0 **** 0.268
5000 C2 18.5032 4.43205 28.9358 C.3 0 **** 0.268
5001 N1 18.4497 3.19495 26.8206 N.2 0 **** 0.856
5002 N2 18.708 4.38264 27.5004 N.2 0 **** -0.374
5003 N3 20.7206 5.71516 27.3129 N.2 0 **** -0.374
5004 N4 21.6886 4.72136 27.1961 N.2 0 **** 0.856
5005 O1 18.5959 3.20031 25.6192 O.2 0 **** -0.428
5006 O2 18.0887 2.25061 27.4883 O.2 0 **** -0.428
5007 O3 22.786 4.95831 27.65 O.2 0 **** -0.428
5008 O4 21.3605 3.69235 26.6468 O.2 0 **** -0.428
5009 H 19.3706 5.31202 25.7477 H 0 **** 0.053
5010 H 18.7276 6.42113 26.9358 H 0 **** 0.053
5011 H 17.4454 4.20762 29.1579 H 0 **** 0.053
5012 H 19.0748 3.62527 29.4268 H 0 **** 0.053
5013 C1 3.09819 15.7444 23.9842 C.3 0 **** 0.268
5014 C2 3.94148 16.8253 21.8805 C.3 0 **** 0.268
5015 N1 3.99501 18.0624 23.9957 N.2 0 **** 0.856
5016 N2 3.73671 16.8747 23.3159 N.2 0 **** -0.374
5017 N3 1.72412 15.5422 23.5034 N.2 0 **** -0.374
5018 N4 0.756093 16.536 23.6201 N.2 0 **** 0.856
5019 O1 3.84886 18.057 25.197 O.2 0 **** -0.428
5020 O2 4.35605 19.0067 23.328 O.2 0 **** -0.428
5021 O3 -0.341237 16.299 23.1662 O.2 0 **** -0.428
5022 O4 1.08421 17.565 24.1694 O.2 0 **** -0.428
5023 H 3.07412 15.9453 25.0686 H 0 **** 0.053
5024 H 3.71712 14.8362 23.8805 H 0 **** 0.053
5025 H 4.99927 17.0497 21.6584 H 0 **** 0.053
5026 H 3.36987 17.632 21.3894 H 0 **** 0.053
5027 C1 2.24626 15.3183 20.8073 C.3 0 **** 0.268
5028 C2 1.40297 14.2374 22.911 C.3 0 **** 0.268
5029 N1 1.34944 13.0003 20.7958 N.2 0 **** 0.856
5030 N2 1.60774 14.188 21.4756 N.2 0 **** -0.374
5031 N3 3.62033 15.5205 21.2881 N.2 0 **** -0.374
5032 N4 4.58836 14.5267 21.1713 N.2 0 **** 0.856
5033 O1 1.49559 13.0057 19.5944 O.2 0 **** -0.428
5034 O2 0.988402 12.056 21.4635 O.2 0 **** -0.428
5035 O3 5.68569 14.7637 21.6252 O.2 0 **** -0.428
5036 O4 4.26024 13.4977 20.622 O.2 0 **** -0.428
5037 H 2.27033 15.1174 19.7228 H 0 **** 0.053
5038 H 1.62733 16.2265 20.911 H 0 **** 0.053
5039 H 0.345177 14.013 23.1331 H 0 **** 0.053
5040 H 1.97458 13.4306 23.402 H 0 **** 0.053
5041 C1 7.0168 10.8417 30.009 C.3 0 **** 0.268
5042 C2 7.86009 11.9226 27.9053 C.3 0 **** 0.268
5043 N1 7.91361 13.1597 30.0205 N.2 0 **** 0.856
5044 N2 7.65532 11.972 29.3407 N.2 0 **** -0.374
5045 N3 5.64273 10.6395 29.5282 N.2 0 **** -0.374
5046 N4 4.6747 11.6333 29.6449 N.2 0 **** 0.856
5047 O1 7.76746 13.1543 31.2218 O.2 0 **** -0.428
5048 O2 8.27465 14.104 29.3528 O.2 0 **** -0.428
5049 O3 3.57737 11.3963 29.191 O.2 0 **** -0.428
5050 O4 5.00282 12.6623 30.1942 O.2 0 **** -0.428
5051 H 6.99273 11.0426 31.0934 H 0 **** 0.053
5052 H 7.63572 9.93352 29.9053 H 0 **** 0.053
5053 H 8.91788 12.147 27.6832 H 0 **** 0.053
5054 H 7.28848 12.7294 27.4142 H 0 **** 0.053
5055 C1 6.16487 10.4156 26.8321 C.3 0 **** 0.268
5056 C2 5.32158 9.33473 28.9358 C.3 0 **** 0.268
5057 N1 5.26805 8.09762 26.8206 N.2 0 **** 0.856
5058 N2 5.52635 9.28532 27.5004 N.2 0 **** -0.374
5059 N3 7.53894 10.6178 27.3129 N.2 0 **** -0.374
5060 N4 8.50696 9.62403 27.1961 N.2 0 **** 0.856
5061 O1 5.4142 8.10298 25.6192 O.2 0 **** -0.428
5062 O2 4.90701 7.15329 27.4883 O.2 0 **** -0.428
5063 O3 9.60429 9.86098 27.65 O.2 0 **** -0.428
5064 O4 8.17884 8.59502 26.6468 O.2 0 **** -0.428
5065 H 6.18894 10.2147 25.7477 H 0 **** 0.053
5066 H 5.54594 11.3238 26.9358 H 0 **** 0.053
5067 H 4.26378 9.1103 29.1579 H 0 **** 0.053
5068 H 5.89318 8.52795 29.4268 H 0 **** 0.053
5069 C1 57.2507 12.479 5.90975 C.3 0 **** 0.268
5070 C2 58.094 13.5599 3.80604 C.3 0 **** 0.268
5071 N1 58.1475 14.797 5.92124 N.2 0 **** 0.856
5072 N2 57.8892 13.6093 5.24148 N.2 0 **** -0.374
5073 N3 55.8766 12.2768 5.42894 N.2 0 **** -0.374
5074 N4 54.9086 13.2706 5.54572 N.2 0 **** 0.856
5075 O1 58.0014 14.7917 7.12261 O.2 0 **** -0.428
5076 O2 58.5085 15.7414 5.25354 O.2 0 **** -0.428
5077 O3 53.8113 13.0337 5.09182 O.2 0 **** -0.428
5078 O4 55.2367 14.2996 6.095 O.2 0 **** -0.428
5079 H 57.2266 12.6799 6.99418 H 0 **** 0.053
5080 H 57.8696 11.5708 5.80608 H 0 **** 0.053
5081 H 59.1518 13.7844 3.58397 H 0 **** 0.053
5082 H 57.5224 14.3667 3.31501 H 0 **** 0.053
5083 C1 56.3988 12.053 2.73287 C.3 0 **** 0.268
5084 C2 55.5555 10.9721 4.83657 C.3 0 **** 0.268
5085 N1 55.5019 9.73495 2.72137 N.2 0 **** 0.856
5086 N2 55.7602 10.9226 3.40114 N.2 0 **** -0.374
5087 N3 57.7728 12.2552 3.21367 N.2 0 **** -0.374
5088 N4 58.7409 11.2614 3.0969 N.2 0 **** 0.856
5089 O1 55.6481 9.74031 1.52 O.2 0 **** -0.428
5090 O2 55.1409 8.79061 3.38907 O.2 0 **** -0.428
5091 O3 59.8382 11.4983 3.5508 O.2 0 **** -0.428
5092 O4 58.4127 10.2323 2.54761 O.2 0 **** -0.428
5093 H 56.4228 11.852 1.64843 H 0 **** 0.053
5094 H 55.7798 12.9611 2.83654 H 0 **** 0.053
5095 H 54.4977 10.7476 5.05864 H 0 **** 0.053
5096 H 56.1271 10.1653 5.3276 H 0 **** 0.053
5097 C1 44.069 17.3817 5.90975 C.3 0 **** 0.268
5098 C2 44.9123 18.4626 3.80604 C.3 0 **** 0.268
5099 N1 44.9658 19.6997 5.92124 N.2 0 **** 0.856
5100 N2 44.7075 18.512 5.24148 N.2 0 **** -0.374
5101 N3 42.695 17.1795 5.42894 N.2 0 **** -0.374
5102 N4 41.7269 18.1733 5.54572 N.2 0 **** 0.856
5103 O1 44.8197 19.6943 7.12261 O.2 0 **** -0.428
5104 O2 45.3269 20.644 5.25354 O.2 0 **** -0.428
5105 O3 40.6296 17.9363 5.09182 O.2 0 **** -0.428
5106 O4 42.055 19.2023 6.095 O.2 0 **** -0.428
5107 H 44.045 17.5826 6.99418 H 0 **** 0.053
5108 H 44.688 16.4735 5.80608 H 0 **** 0.053
5109 H 45.9701 18.687 3.58397 H 0 **** 0.053
5110 H 44.3407 19.2694 3.31501 H 0 **** 0.053
5111 C1 43.2171 16.9556 2.73287 C.3 0 **** 0.268
5112 C2 42.3738 15.8747 4.83657 C.3 0 **** 0.268
5113 N1 42.3203 14.6376 2.72137 N.2 0 **** 0.856
5114 N2 42.5786 15.8253 3.40114 N.2 0 **** -0.374
5115 N3 44.5912 17.1578 3.21367 N.2 0 **** -0.374
5116 N4 45.5592 16.164 3.0969 N.2 0 **** 0.856
5117 O1 42.4664 14.643 1.52 O.2 0 **** -0.428
5118 O2 41.9592 13.6933 3.38907 O.2 0 **** -0.428
5119 O3 46.6565 16.401 3.5508 O.2 0 **** -0.428
5120 O4 45.2311 15.135 2.54761 O.2 0 **** -0.428
5121 H 43.2412 16.7547 1.64843 H 0 **** 0.053
5122 H 42.5982 17.8638 2.83654 H 0 **** 0.053
5123 H 41.316 15.6503 5.05864 H 0 **** 0.053
5124 H 42.9454 15.068 5.3276 H 0 **** 0.053
5125 C1 47.9876 12.479 11.9346 C.3 0 **** 0.268
5126 C2 48.8309 13.5599 9.83085 C.3 0 **** 0.268
5127 N1 48.8844 14.797 11.946 N.2 0 **** 0.856
5128 N2 48.6261 13.6093 11.2663 N.2 0 **** -0.374
5129 N3 46.6136 12.2768 11.4537 N.2 0 **** -0.374
5130 N4 45.6455 13.2706 11.5705 N.2 0 **** 0.856
5131 O1 48.7383 14.7917 13.1474 O.2 0 **** -0.428
5132 O2 49.2455 15.7414 11.2783 O.2 0 **** -0.428
5133 O3 44.5482 13.0337 11.1166 O.2 0 **** -0.428
5134 O4 45.9737 14.2996 12.1198 O.2 0 **** -0.428
5135 H 47.9636 12.6799 13.019 H 0 **** 0.053
5136 H 48.6066 11.5708 11.8309 H 0 **** 0.053
5137 H 49.8887 13.7844 9.60877 H 0 **** 0.053
5138 H 48.2593 14.3667 9.33982 H 0 **** 0.053
5139 C1 47.1357 12.053 8.75767 C.3 0 **** 0.268
5140 C2 46.2924 10.9721 10.8614 C.3 0 **** 0.268
5141 N1 46.2389 9.73495 8.74618 N.2 0 **** 0.856
5142 N2 46.4972 10.9226 9.42594 N.2 0 **** -0.374
5143 N3 48.5098 12.2552 9.23848 N.2 0 **** -0.374
5144 N4 49.4778 11.2614 9.1217 N.2 0 **** 0.856
5145 O1 46.385 9.74031 7.54481 O.2 0 **** -0.428
5146 O2 45.8778 8.79061 9.41388 O.2 0 **** -0.428
5147 O3 50.5751 11.4983 9.5756 O.2 0 **** -0.428
5148 O4 49.1497 10.2323 8.57242 O.2 0 **** -0.428
5149 H 47.1598 11.852 7.67323 H 0 **** 0.053
5150 H 46.5168 12.9611 8.86134 H 0 **** 0.053
5151 H 45.2346 10.7476 11.0834 H 0 **** 0.053
5152 H 46.864 10.1653 11.3524 H 0 **** 0.053
5153 C1 51.9062 7.57634 17.9594 C.3 0 **** 0.268
5154 C2 52.7495 8.65724 15.8557 C.3 0 **** 0.268
5155 N1 52.8031 9.89435 17.9709 N.2 0 **** 0.856
5156 N2 52.5448 8.70665 17.2911 N.2 0 **** -0.374
5157 N3 50.5322 7.37413 17.4786 N.2 0 **** -0.374
5158 N4 49.5641 8.36794 17.5953 N.2 0 **** 0.856
5159 O1 52.6569 9.88899 19.1722 O.2 0 **** -0.428
5160 O2 53.1641 10.8387 17.3032 O.2 0 **** -0.428
5161 O3 48.4668 8.13099 17.1414 O.2 0 **** -0.428
5162 O4 49.8923 9.39695 18.1446 O.2 0 **** -0.428
5163 H 51.8822 7.77727 19.0438 H 0 **** 0.053
5164 H 52.5252 6.66817 17.8557 H 0 **** 0.053
5165 H 53.8073 8.88168 15.6336 H 0 **** 0.053
5166 H 52.1779 9.46402 15.3646 H 0 **** 0.053
5167 C1 51.0543 7.15027 14.7825 C.3 0 **** 0.268
5168 C2 50.211 6.06938 16.8862 C.3 0 **** 0.268
5169 N1 50.1575 4.83227 14.771 N.2 0 **** 0.856
5170 N2 50.4158 6.01996 15.4507 N.2 0 **** -0.374
5171 N3 52.4284 7.35249 15.2633 N.2 0 **** -0.374
5172 N4 53.3964 6.35868 15.1465 N.2 0 **** 0.856
5173 O1 50.3036 4.83763 13.5696 O.2 0 **** -0.428
5174 O2 49.7965 3.88793 15.4387 O.2 0 **** -0.428
5175 O3 54.4937 6.59563 15.6004 O.2 0 **** -0.428
5176 O4 53.0683 5.32967 14.5972 O.2 0 **** -0.428
5177 H 51.0784 6.94935 13.698 H 0 **** 0.053
5178 H 50.4354 8.05845 14.8861 H 0 **** 0.053
5179 H 49.1532 5.84494 17.1083 H 0 **** 0.053
5180 H 50.7826 5.2626 17.3772 H 0 **** 0.053
5181 C1 30.8874 22.2844 5.90975 C.3 0 **** 0.268
5182 C2 31.7306 23.3653 3.80604 C.3 0 **** 0.268
5183 N1 31.7842 24.6024 5.92124 N.2 0 **** 0.856
5184 N2 31.5259 23.4147 5.24148 N.2 0 **** -0.374
5185 N3 29.5133 22.0822 5.42894 N.2 0 **** -0.374
5186 N4 28.5453 23.076 5.54572 N.2 0 **** 0.856
5187 O1 31.638 24.597 7.12261 O.2 0 **** -0.428
5188 O2 32.1452 25.5467 5.25354 O.2 0 **** -0.428
5189 O3 27.4479 22.839 5.09182 O.2 0 **** -0.428
5190 O4 28.8734 24.105 6.095 O.2 0 **** -0.428
5191 H 30.8633 22.4853 6.99418 H 0 **** 0.053
5192 H 31.5063 21.3762 5.80608 H 0 **** 0.053
5193 H 32.7884 23.5897 3.58397 H 0 **** 0.053
5194 H 31.159 24.172 3.31501 H 0 **** 0.053
5195 C1 30.0354 21.8583 2.73287 C.3 0 **** 0.268
5196 C2 29.1921 20.7774 4.83657 C.3 0 **** 0.268
5197 N1 29.1386 19.5403 2.72137 N.2 0 **** 0.856
5198 N2 29.3969 20.728 3.40114 N.2 0 **** -0.374
5199 N3 31.4095 22.0605 3.21367 N.2 0 **** -0.374
5200 N4 32.3775 21.0667 3.0969 N.2 0 **** 0.856
5201 O1 29.2848 19.5457 1.52 O.2 0 **** -0.428
5202 O2 28.7776 18.596 3.38907 O.2 0 **** -0.428
5203 O3 33.4749 21.3037 3.5508 O.2 0 **** -0.428
5204 O4 32.0494 20.0377 2.54761 O.2 0 **** -0.428
5205 H 30.0595 21.6574 1.64843 H 0 **** 0.053
5206 H 29.4165 22.7665 2.83654 H 0 **** 0.053
5207 H 28.1343 20.553 5.05864 H 0 **** 0.053
5208 H 29.7637 19.9706 5.3276 H 0 **** 0.053
5209 C1 34.806 17.3817 11.9346 C.3 0 **** 0.268
5210 C2 35.6493 18.4626 9.83085 C.3 0 **** 0.268
5211 N1 35.7028 19.6997 11.946 N.2 0 **** 0.856
5212 N2 35.4445 18.512 11.2663 N.2 0 **** -0.374
5213 N3 33.4319 17.1795 11.4537 N.2 0 **** -0.374
5214 N4 32.4639 18.1733 11.5705 N.2 0 **** 0.856
5215 O1 35.5566 19.6943 13.1474 O.2 0 **** -0.428
5216 O2 36.0638 20.644 11.2783 O.2 0 **** -0.428
5217 O3 31.3665 17.9363 11.1166 O.2 0 **** -0.428
5218 O4 32.792 19.2023 12.1198 O.2 0 **** -0.428
5219 H 34.7819 17.5826 13.019 H 0 **** 0.053
5220 H 35.4249 16.4735 11.8309 H 0 **** 0.053
5221 H 36.707 18.687 9.60877 H 0 **** 0.053
5222 H 35.0776 19.2694 9.33982 H 0 **** 0.053
5223 C1 33.954 16.9556 8.75767 C.3 0 **** 0.268
5224 C2 33.1107 15.8747 10.8614 C.3 0 **** 0.268
5225 N1 33.0572 14.6376 8.74618 N.2 0 **** 0.856
5226 N2 33.3155 15.8253 9.42594 N.2 0 **** -0.374
5227 N3 35.3281 17.1578 9.23848 N.2 0 **** -0.374
5228 N4 36.2961 16.164 9.1217 N.2 0 **** 0.856
5229 O1 33.2034 14.643 7.54481 O.2 0 **** -0.428
5230 O2 32.6962 13.6933 9.41388 O.2 0 **** -0.428
5231 O3 37.3935 16.401 9.5756 O.2 0 **** -0.428
5232 O4 35.968 15.135 8.57242 O.2 0 **** -0.428
5233 H 33.9781 16.7547 7.67323 H 0 **** 0.053
5234 H 33.3351 17.8638 8.86134 H 0 **** 0.053
5235 H 32.053 15.6503 11.0834 H 0 **** 0.053
5236 H 33.6824 15.068 11.3524 H 0 **** 0.053
5237 C1 38.7246 12.479 17.9594 C.3 0 **** 0.268
5238 C2 39.5679 13.5599 15.8557 C.3 0 **** 0.268
5239 N1 39.6214 14.797 17.9709 N.2 0 **** 0.856
5240 N2 39.3631 13.6093 17.2911 N.2 0 **** -0.374
5241 N3 37.3505 12.2768 17.4786 N.2 0 **** -0.374
5242 N4 36.3825 13.2706 17.5953 N.2 0 **** 0.856
5243 O1 39.4752 14.7917 19.1722 O.2 0 **** -0.428
5244 O2 39.9824 15.7414 17.3032 O.2 0 **** -0.428
5245 O3 35.2851 13.0337 17.1414 O.2 0 **** -0.428
5246 O4 36.7106 14.2996 18.1446 O.2 0 **** -0.428
5247 H 38.7005 12.6799 19.0438 H 0 **** 0.053
5248 H 39.3435 11.5708 17.8557 H 0 **** 0.053
5249 H 40.6257 13.7844 15.6336 H 0 **** 0.053
5250 H 38.9963 14.3667 15.3646 H 0 **** 0.053
5251 C1 37.8726 12.053 14.7825 C.3 0 **** 0.268
5252 C2 37.0294 10.9721 16.8862 C.3 0 **** 0.268
5253 N1 36.9758 9.73495 14.771 N.2 0 **** 0.856
5254 N2 37.2341 10.9226 15.4507 N.2 0 **** -0.374
5255 N3 39.2467 12.2552 15.2633 N.2 0 **** -0.374
5256 N4 40.2147 11.2614 15.1465 N.2 0 **** 0.856
5257 O1 37.122 9.74031 13.5696 O.2 0 **** -0.428
5258 O2 36.6148 8.79061 15.4387 O.2 0 **** -0.428
5259 O3 41.3121 11.4983 15.6004 O.2 0 **** -0.428
5260 O4 39.8866 10.2323 14.5972 O.2 0 **** -0.428
5261 H 37.8967 11.852 13.698 H 0 **** 0.053
5262 H 37.2537 12.9611 14.8861 H 0 **** 0.053
5263 H 35.9716 10.7476 17.1083 H 0 **** 0.053
5264 H 37.601 10.1653 17.3772 H 0 **** 0.053
5265 C1 42.6432 7.57634 23.9842 C.3 0 **** 0.268
5266 C2 43.4865 8.65724 21.8805 C.3 0 **** 0.268
5267 N1 43.54 9.89435 23.9957 N.2 0 **** 0.856
5268 N2 43.2817 8.70665 23.3159 N.2 0 **** -0.374
5269 N3 41.2691 7.37413 23.5034 N.2 0 **** -0.374
5270 N4 40.3011 8.36794 23.6201 N.2 0 **** 0.856
5271 O1 43.3938 9.88899 25.197 O.2 0 **** -0.428
5272 O2 43.901 10.8387 23.328 O.2 0 **** -0.428
5273 O3 39.2038 8.13099 23.1662 O.2 0 **** -0.428
5274 O4 40.6292 9.39695 24.1694 O.2 0 **** -0.428
5275 H 42.6191 7.77727 25.0686 H 0 **** 0.053
5276 H 43.2621 6.66817 23.8805 H 0 **** 0.053
5277 H 44.5443 8.88168 21.6584 H 0 **** 0.053
5278 H 42.9149 9.46402 21.3894 H 0 **** 0.053
5279 C1 41.7913 7.15027 20.8073 C.3 0 **** 0.268
5280 C2 40.948 6.06938 22.911 C.3 0 **** 0.268
5281 N1 40.8944 4.83227 20.7958 N.2 0 **** 0.856
5282 N2 41.1527 6.01996 21.4756 N.2 0 **** -0.374
5283 N3 43.1653 7.35249 21.2881 N.2 0 **** -0.374
5284 N4 44.1333 6.35868 21.1713 N.2 0 **** 0.856
5285 O1 41.0406 4.83763 19.5944 O.2 0 **** -0.428
5286 O2 40.5334 3.88793 21.4635 O.2 0 **** -0.428
5287 O3 45.2307 6.59563 21.6252 O.2 0 **** -0.428
5288 O4 43.8052 5.32967 20.622 O.2 0 **** -0.428
5289 H 41.8153 6.94935 19.7228 H 0 **** 0.053
5290 H 41.1723 8.05845 20.911 H 0 **** 0.053
5291 H 39.8902 5.84494 23.1331 H 0 **** 0.053
5292 H 41.5196 5.2626 23.402 H 0 **** 0.053
5293 C1 17.7057 27.187 5.90975 C.3 0 **** 0.268
5294 C2 18.549 28.2679 3.80604 C.3 0 **** 0.268
5295 N1 18.6025 29.5051 5.92124 N.2 0 **** 0.856
5296 N2 18.3442 28.3174 5.24148 N.2 0 **** -0.374
5297 N3 16.3316 26.9848 5.42894 N.2 0 **** -0.374
5298 N4 15.3636 27.9786 5.54572 N.2 0 **** 0.856
5299 O1 18.4564 29.4997 7.12261 O.2 0 **** -0.428
5300 O2 18.9636 30.4494 5.25354 O.2 0 **** -0.428
5301 O3 14.2663 27.7417 5.09182 O.2 0 **** -0.428
5302 O4 15.6917 29.0077 6.095 O.2 0 **** -0.428
5303 H 17.6816 27.388 6.99418 H 0 **** 0.053
5304 H 18.3246 26.2789 5.80608 H 0 **** 0.053
5305 H 19.6068 28.4924 3.58397 H 0 **** 0.053
5306 H 17.9774 29.0747 3.31501 H 0 **** 0.053
5307 C1 16.8538 26.761 2.73287 C.3 0 **** 0.268
5308 C2 16.0105 25.6801 4.83657 C.3 0 **** 0.268
5309 N1 15.9569 24.443 2.72137 N.2 0 **** 0.856
5310 N2 16.2152 25.6307 3.40114 N.2 0 **** -0.374
5311 N3 18.2278 26.9632 3.21367 N.2 0 **** -0.374
5312 N4 19.1959 25.9694 3.0969 N.2 0 **** 0.856
5313 O1 16.1031 24.4483 1.52 O.2 0 **** -0.428
5314 O2 15.5959 23.4986 3.38907 O.2 0 **** -0.428
5315 O3 20.2932 26.2063 3.5508 O.2 0 **** -0.428
5316 O4 18.8677 24.9404 2.54761 O.2 0 **** -0.428
5317 H 16.8778 26.5601 1.64843 H 0 **** 0.053
5318 H 16.2348 27.6692 2.83654 H 0 **** 0.053
5319 H 14.9527 25.4556 5.05864 H 0 **** 0.053
5320 H 16.5821 24.8733 5.3276 H 0 **** 0.053
5321 C1 21.6243 22.2844 11.9346 C.3 0 **** 0.268
5322 C2 22.4676 23.3653 9.83085 C.3 0 **** 0.268
5323 N1 22.5211 24.6024 11.946 N.2 0 **** 0.856
5324 N2 22.2628 23.4147 11.2663 N.2 0 **** -0.374
5325 N3 20.2502 22.0822 11.4537 N.2 0 **** -0.374
5326 N4 19.2822 23.076 11.5705 N.2 0 **** 0.856
5327 O1 22.375 24.597 13.1474 O.2 0 **** -0.428
5328 O2 22.8822 25.5467 11.2783 O.2 0 **** -0.428
5329 O3 18.1849 22.839 11.1166 O.2 0 **** -0.428
5330 O4 19.6103 24.105 12.1198 O.2 0 **** -0.428
5331 H 21.6002 22.4853 13.019 H 0 **** 0.053
5332 H 22.2432 21.3762 11.8309 H 0 **** 0.053
5333 H 23.5254 23.5897 9.60877 H 0 **** 0.053
5334 H 21.896 24.172 9.33982 H 0 **** 0.053
5335 C1 20.7724 21.8583 8.75767 C.3 0 **** 0.268
5336 C2 19.9291 20.7774 10.8614 C.3 0 **** 0.268
5337 N1 19.8756 19.5403 8.74618 N.2 0 **** 0.856
5338 N2 20.1339 20.728 9.42594 N.2 0 **** -0.374
5339 N3 22.1464 22.0605 9.23848 N.2 0 **** -0.374
5340 N4 23.1145 21.0667 9.1217 N.2 0 **** 0.856
5341 O1 20.0217 19.5457 7.54481 O.2 0 **** -0.428
5342 O2 19.5145 18.596 9.41388 O.2 0 **** -0.428
5343 O3 24.2118 21.3037 9.5756 O.2 0 **** -0.428
5344 O4 22.7863 20.0377 8.57242 O.2 0 **** -0.428
5345 H 20.7964 21.6574 7.67323 H 0 **** 0.053
5346 H 20.1534 22.7665 8.86134 H 0 **** 0.053
5347 H 18.8713 20.553 11.0834 H 0 **** 0.053
5348 H 20.5007 19.9706 11.3524 H 0 **** 0.053
5349 C1 25.5429 17.3817 17.9594 C.3 0 **** 0.268
5350 C2 26.3862 18.4626 15.8557 C.3 0 **** 0.268
5351 N1 26.4397 19.6997 17.9709 N.2 0 **** 0.856
5352 N2 26.1814 18.512 17.2911 N.2 0 **** -0.374
5353 N3 24.1688 17.1795 17.4786 N.2 0 **** -0.374
5354 N4 23.2008 18.1733 17.5953 N.2 0 **** 0.856
5355 O1 26.2936 19.6943 19.1722 O.2 0 **** -0.428
5356 O2 26.8008 20.644 17.3032 O.2 0 **** -0.428
5357 O3 22.1035 17.9363 17.1414 O.2 0 **** -0.428
5358 O4 23.5289 19.2023 18.1446 O.2 0 **** -0.428
5359 H 25.5188 17.5826 19.0438 H 0 **** 0.053
5360 H 26.1618 16.4735 17.8557 H 0 **** 0.053
5361 H 27.444 18.687 15.6336 H 0 **** 0.053
5362 H 25.8146 19.2694 15.3646 H 0 **** 0.053
5363 C1 24.691 16.9556 14.7825 C.3 0 **** 0.268
5364 C2 23.8477 15.8747 16.8862 C.3 0 **** 0.268
5365 N1 23.7942 14.6376 14.771 N.2 0 **** 0.856
5366 N2 24.0525 15.8253 15.4507 N.2 0 **** -0.374
5367 N3 26.065 17.1578 15.2633 N.2 0 **** -0.374
5368 N4 27.0331 16.164 15.1465 N.2 0 **** 0.856
5369 O1 23.9403 14.643 13.5696 O.2 0 **** -0.428
5370 O2 23.4331 13.6933 15.4387 O.2 0 **** -0.428
5371 O3 28.1304 16.401 15.6004 O.2 0 **** -0.428
5372 O4 26.705 15.135 14.5972 O.2 0 **** -0.428
5373 H 24.715 16.7547 13.698 H 0 **** 0.053
5374 H 24.0721 17.8638 14.8861 H 0 **** 0.053
5375 H 22.7899 15.6503 17.1083 H 0 **** 0.053
5376 H 24.4193 15.068 17.3772 H 0 **** 0.053
5377 C1 29.4615 12.479 23.9842 C.3 0 **** 0.268
5378 C2 30.3048 13.5599 21.8805 C.3 0 **** 0.268
5379 N1 30.3583 14.797 23.9957 N.2 0 **** 0.856
5380 N2 30.1 13.6093 23.3159 N.2 0 **** -0.374
5381 N3 28.0874 12.2768 23.5034 N.2 0 **** -0.374
5382 N4 27.1194 13.2706 23.6201 N.2 0 **** 0.856
5383 O1 30.2122 14.7917 25.197 O.2 0 **** -0.428
5384 O2 30.7194 15.7414 23.328 O.2 0 **** -0.428
5385 O3 26.0221 13.0337 23.1662 O.2 0 **** -0.428
5386 O4 27.4475 14.2996 24.1694 O.2 0 **** -0.428
5387 H 29.4374 12.6799 25.0686 H 0 **** 0.053
5388 H 30.0804 11.5708 23.8805 H 0 **** 0.053
5389 H 31.3626 13.7844 21.6584 H 0 **** 0.053
5390 H 29.7332 14.3667 21.3894 H 0 **** 0.053
5391 C1 28.6096 12.053 20.8073 C.3 0 **** 0.268
5392 C2 27.7663 10.9721 22.911 C.3 0 **** 0.268
5393 N1 27.7128 9.73495 20.7958 N.2 0 **** 0.856
5394 N2 27.9711 10.9226 21.4756 N.2 0 **** -0.374
5395 N3 29.9837 12.2552 21.2881 N.2 0 **** -0.374
5396 N4 30.9517 11.2614 21.1713 N.2 0 **** 0.856
5397 O1 27.8589 9.74031 19.5944 O.2 0 **** -0.428
5398 O2 27.3517 8.79061 21.4635 O.2 0 **** -0.428
5399 O3 32.049 11.4983 21.6252 O.2 0 **** -0.428
5400 O4 30.6236 10.2323 20.622 O.2 0 **** -0.428
5401 H 28.6337 11.852 19.7228 H 0 **** 0.053
5402 H 27.9907 12.9611 20.911 H 0 **** 0.053
5403 H 26.7085 10.7476 23.1331 H 0 **** 0.053
5404 H 28.3379 10.1653 23.402 H 0 **** 0.053
5405 C1 33.3801 7.57634 30.009 C.3 0 **** 0.268
5406 C2 34.2234 8.65724 27.9053 C.3 0 **** 0.268
5407 N1 34.2769 9.89435 30.0205 N.2 0 **** 0.856
5408 N2 34.0186 8.70665 29.3407 N.2 0 **** -0.374
5409 N3 32.0061 7.37413 29.5282 N.2 0 **** -0.374
5410 N4 31.038 8.36794 29.6449 N.2 0 **** 0.856
5411 O1 34.1308 9.88899 31.2218 O.2 0 **** -0.428
5412 O2 34.638 10.8387 29.3528 O.2 0 **** -0.428
5413 O3 29.9407 8.13099 29.191 O.2 0 **** -0.428
5414 O4 31.3661 9.39695 30.1942 O.2 0 **** -0.428
5415 H 33.3561 7.77727 31.0934 H 0 **** 0.053
5416 H 33.9991 6.66817 29.9053 H 0 **** 0.053
5417 H 35.2812 8.88168 27.6832 H 0 **** 0.053
5418 H 33.6518 9.46402 27.4142 H 0 **** 0.053
5419 C1 32.5282 7.15027 26.8321 C.3 0 **** 0.268
5420 C2 31.6849 6.06938 28.9358 C.3 0 **** 0.268
5421 N1 31.6314 4.83227 26.8206 N.2 0 **** 0.856
5422 N2 31.8897 6.01996 27.5004 N.2 0 **** -0.374
5423 N3 33.9023 7.35249 27.3129 N.2 0 **** -0.374
5424 N4 34.8703 6.35868 27.1961 N.2 0 **** 0.856
5425 O1 31.7775 4.83763 25.6192 O.2 0 **** -0.428
5426 O2 31.2703 3.88793 27.4883 O.2 0 **** -0.428
5427 O3 35.9676 6.59563 27.65 O.2 0 **** -0.428
5428 O4 34.5422 5.32967 26.6468 O.2 0 **** -0.428
5429 H 32.5523 6.94935 25.7477 H 0 **** 0.053
5430 H 31.9093 8.05845 26.9358 H 0 **** 0.053
5431 H 30.6271 5.84494 29.1579 H 0 **** 0.053
5432 H 32.2565 5.2626 29.4268 H 0 **** 0.053
5433 C1 4.52403 32.0897 5.90975 C.3 0 **** 0.268
5434 C2 5.36732 33.1706 3.80604 C.3 0 **** 0.268
5435 N1 5.42085 34.4077 5.92124 N.2 0 **** 0.856
5436 N2 5.16255 33.22 5.24148 N.2 0 **** -0.374
5437 N3 3.14996 31.8875 5.42894 N.2 0 **** -0.374
5438 N4 2.18194 32.8813 5.54572 N.2 0 **** 0.856
5439 O1 5.2747 34.4024 7.12261 O.2 0 **** -0.428
5440 O2 5.78189 35.3521 5.25354 O.2 0 **** -0.428
5441 O3 1.0846 32.6444 5.09182 O.2 0 **** -0.428
5442 O4 2.51006 33.9103 6.095 O.2 0 **** -0.428
5443 H 4.49996 32.2907 6.99418 H 0 **** 0.053
5444 H 5.14296 31.1816 5.80608 H 0 **** 0.053
5445 H 6.42512 33.3951 3.58397 H 0 **** 0.053
5446 H 4.79571 33.9774 3.31501 H 0 **** 0.053
5447 C1 3.6721 31.6637 2.73287 C.3 0 **** 0.268
5448 C2 2.82881 30.5828 4.83657 C.3 0 **** 0.268
5449 N1 2.77529 29.3457 2.72137 N.2 0 **** 0.856
5450 N2 3.03358 30.5333 3.40114 N.2 0 **** -0.374
5451 N3 5.04617 31.8659 3.21367 N.2 0 **** -0.374
5452 N4 6.0142 30.8721 3.0969 N.2 0 **** 0.856
5453 O1 2.92144 29.351 1.52 O.2 0 **** -0.428
5454 O2 2.41424 28.4013 3.38907 O.2 0 **** -0.428
5455 O3 7.11153 31.109 3.5508 O.2 0 **** -0.428
5456 O4 5.68608 29.8431 2.54761 O.2 0 **** -0.428
5457 H 3.69617 31.4627 1.64843 H 0 **** 0.053
5458 H 3.05317 32.5718 2.83654 H 0 **** 0.053
5459 H 1.77102 30.3583 5.05864 H 0 **** 0.053
5460 H 3.40042 29.776 5.3276 H 0 **** 0.053
5461 C1 8.44264 27.187 11.9346 C.3 0 **** 0.268
5462 C2 9.28593 28.2679 9.83085 C.3 0 **** 0.268
5463 N1 9.33946 29.5051 11.946 N.2 0 **** 0.856
5464 N2 9.08116 28.3174 11.2663 N.2 0 **** -0.374
5465 N3 7.06857 26.9848 11.4537 N.2 0 **** -0.374
5466 N4 6.10054 27.9786 11.5705 N.2 0 **** 0.856
5467 O1 9.19331 29.4997 13.1474 O.2 0 **** -0.428
5468 O2 9.7005 30.4494 11.2783 O.2 0 **** -0.428
5469 O3 5.00321 27.7417 11.1166 O.2 0 **** -0.428
5470 O4 6.42866 29.0077 12.1198 O.2 0 **** -0.428
5471 H 8.41857 27.388 13.019 H 0 **** 0.053
5472 H 9.06157 26.2789 11.8309 H 0 **** 0.053
5473 H 10.3437 28.4924 9.60877 H 0 **** 0.053
5474 H 8.71432 29.0747 9.33982 H 0 **** 0.053
5475 C1 7.59071 26.761 8.75767 C.3 0 **** 0.268
5476 C2 6.74742 25.6801 10.8614 C.3 0 **** 0.268
5477 N1 6.69389 24.443 8.74618 N.2 0 **** 0.856
5478 N2 6.95219 25.6307 9.42594 N.2 0 **** -0.374
5479 N3 8.96478 26.9632 9.23848 N.2 0 **** -0.374
5480 N4 9.93281 25.9694 9.1217 N.2 0 **** 0.856
5481 O1 6.84004 24.4483 7.54481 O.2 0 **** -0.428
5482 O2 6.33285 23.4986 9.41388 O.2 0 **** -0.428
5483 O3 11.0301 26.2063 9.5756 O.2 0 **** -0.428
5484 O4 9.60469 24.9404 8.57242 O.2 0 **** -0.428
5485 H 7.61478 26.5601 7.67323 H 0 **** 0.053
5486 H 6.97178 27.6692 8.86134 H 0 **** 0.053
5487 H 5.68963 25.4556 11.0834 H 0 **** 0.053
5488 H 7.31903 24.8733 11.3524 H 0 **** 0.053
5489 C1 12.3612 22.2844 17.9594 C.3 0 **** 0.268
5490 C2 13.2045 23.3653 15.8557 C.3 0 **** 0.268
5491 N1 13.2581 24.6024 17.9709 N.2 0 **** 0.856
5492 N2 12.9998 23.4147 17.2911 N.2 0 **** -0.374
5493 N3 10.9872 22.0822 17.4786 N.2 0 **** -0.374
5494 N4 10.0192 23.076 17.5953 N.2 0 **** 0.856
5495 O1 13.1119 24.597 19.1722 O.2 0 **** -0.428
5496 O2 13.6191 25.5467 17.3032 O.2 0 **** -0.428
5497 O3 8.92182 22.839 17.1414 O.2 0 **** -0.428
5498 O4 10.3473 24.105 18.1446 O.2 0 **** -0.428
5499 H 12.3372 22.4853 19.0438 H 0 **** 0.053
5500 H 12.9802 21.3762 17.8557 H 0 **** 0.053
5501 H 14.2623 23.5897 15.6336 H 0 **** 0.053
5502 H 12.6329 24.172 15.3646 H 0 **** 0.053
5503 C1 11.5093 21.8583 14.7825 C.3 0 **** 0.268
5504 C2 10.666 20.7774 16.8862 C.3 0 **** 0.268
5505 N1 10.6125 19.5403 14.771 N.2 0 **** 0.856
5506 N2 10.8708 20.728 15.4507 N.2 0 **** -0.374
5507 N3 12.8834 22.0605 15.2633 N.2 0 **** -0.374
5508 N4 13.8514 21.0667 15.1465 N.2 0 **** 0.856
5509 O1 10.7587 19.5457 13.5696 O.2 0 **** -0.428
5510 O2 10.2515 18.596 15.4387 O.2 0 **** -0.428
5511 O3 14.9487 21.3037 15.6004 O.2 0 **** -0.428
5512 O4 13.5233 20.0377 14.5972 O.2 0 **** -0.428
5513 H 11.5334 21.6574 13.698 H 0 **** 0.053
5514 H 10.8904 22.7665 14.8861 H 0 **** 0.053
5515 H 9.60823 20.553 17.1083 H 0 **** 0.053
5516 H 11.2376 19.9706 17.3772 H 0 **** 0.053
5517 C1 16.2799 17.3817 23.9842 C.3 0 **** 0.268
5518 C2 17.1231 18.4626 21.8805 C.3 0 **** 0.268
5519 N1 17.1767 19.6997 23.9957 N.2 0 **** 0.856
5520 N2 16.9184 18.512 23.3159 N.2 0 **** -0.374
5521 N3 14.9058 17.1795 23.5034 N.2 0 **** -0.374
5522 N4 13.9378 18.1733 23.6201 N.2 0 **** 0.856
5523 O1 17.0305 19.6943 25.197 O.2 0 **** -0.428
5524 O2 17.5377 20.644 23.328 O.2 0 **** -0.428
5525 O3 12.8404 17.9363 23.1662 O.2 0 **** -0.428
5526 O4 14.2659 19.2023 24.1694 O.2 0 **** -0.428
5527 H 16.2558 17.5826 25.0686 H 0 **** 0.053
5528 H 16.8988 16.4735 23.8805 H 0 **** 0.053
5529 H 18.1809 18.687 21.6584 H 0 **** 0.053
5530 H 16.5515 19.2694 21.3894 H 0 **** 0.053
5531 C1 15.4279 16.9556 20.8073 C.3 0 **** 0.268
5532 C2 14.5846 15.8747 22.911 C.3 0 **** 0.268
5533 N1 14.5311 14.6376 20.7958 N.2 0 **** 0.856
5534 N2 14.7894 15.8253 21.4756 N.2 0 **** -0.374
5535 N3 16.802 17.1578 21.2881 N.2 0 **** -0.374
5536 N4 17.77 16.164 21.1713 N.2 0 **** 0.856
5537 O1 14.6773 14.643 19.5944 O.2 0 **** -0.428
5538 O2 14.1701 13.6933 21.4635 O.2 0 **** -0.428
5539 O3 18.8674 16.401 21.6252 O.2 0 **** -0.428
5540 O4 17.4419 15.135 20.622 O.2 0 **** -0.428
5541 H 15.452 16.7547 19.7228 H 0 **** 0.053
5542 H 14.809 17.8638 20.911 H 0 **** 0.053
5543 H 13.5268 15.6503 23.1331 H 0 **** 0.053
5544 H 15.1562 15.068 23.402 H 0 **** 0.053
5545 C1 20.1985 12.479 30.009 C.3 0 **** 0.268
5546 C2 21.0418 13.5599 27.9053 C.3 0 **** 0.268
5547 N1 21.0953 14.797 30.0205 N.2 0 **** 0.856
5548 N2 20.837 13.6093 29.3407 N.2 0 **** -0.374
5549 N3 18.8244 12.2768 29.5282 N.2 0 **** -0.374
5550 N4 17.8564 13.2706 29.6449 N.2 0 **** 0.856
5551 O1 20.9491 14.7917 31.2218 O.2 0 **** -0.428
5552 O2 21.4563 15.7414 29.3528 O.2 0 **** -0.428
5553 O3 16.759 13.0337 29.191 O.2 0 **** -0.428
5554 O4 18.1845 14.2996 30.1942 O.2 0 **** -0.428
5555 H 20.1744 12.6799 31.0934 H 0 **** 0.053
5556 H 20.8174 11.5708 29.9053 H 0 **** 0.053
5557 H 22.0995 13.7844 27.6832 H 0 **** 0.053
5558 H 20.4701 14.3667 27.4142 H 0 **** 0.053
5559 C1 19.3465 12.053 26.8321 C.3 0 **** 0.268
5560 C2 18.5032 10.9721 28.9358 C.3 0 **** 0.268
5561 N1 18.4497 9.73495 26.8206 N.2 0 **** 0.856
5562 N2 18.708 10.9226 27.5004 N.2 0 **** -0.374
5563 N3 20.7206 12.2552 27.3129 N.2 0 **** -0.374
5564 N4 21.6886 11.2614 27.1961 N.2 0 **** 0.856
5565 O1 18.5959 9.74031 25.6192 O.2 0 **** -0.428
5566 O2 18.0887 8.79061 27.4883 O.2 0 **** -0.428
5567 O3 22.786 11.4983 27.65 O.2 0 **** -0.428
5568 O4 21.3605 10.2323 26.6468 O.2 0 **** -0.428
5569 H 19.3706 11.852 25.7477 H 0 **** 0.053
5570 H 18.7276 12.9611 26.9358 H 0 **** 0.053
5571 H 17.4454 10.7476 29.1579 H 0 **** 0.053
5572 H 19.0748 10.1653 29.4268 H 0 **** 0.053
5573 C1 3.09819 22.2844 23.9842 C.3 0 **** 0.268
5574 C2 3.94148 23.3653 21.8805 C.3 0 **** 0.268
5575 N1 3.99501 24.6024 23.9957 N.2 0 **** 0.856
5576 N2 3.73671 23.4147 23.3159 N.2 0 **** -0.374
5577 N3 1.72412 22.0822 23.5034 N.2 0 **** -0.374
5578 N4 0.756093 23.076 23.6201 N.2 0 **** 0.856
5579 O1 3.84886 24.597 25.197 O.2 0 **** -0.428
5580 O2 4.35605 25.5467 23.328 O.2 0 **** -0.428
5581 O3 -0.341237 22.839 23.1662 O.2 0 **** -0.428
5582 O4 1.08421 24.105 24.1694 O.2 0 **** -0.428
5583 H 3.07412 22.4853 25.0686 H 0 **** 0.053
5584 H 3.71712 21.3762 23.8805 H 0 **** 0.053
5585 H 4.99927 23.5897 21.6584 H 0 **** 0.053
5586 H 3.36987 24.172 21.3894 H 0 **** 0.053
5587 C1 2.24626 21.8583 20.8073 C.3 0 **** 0.268
5588 C2 1.40297 20.7774 22.911 C.3 0 **** 0.268
5589 N1 1.34944 19.5403 20.7958 N.2 0 **** 0.856
5590 N2 1.60774 20.728 21.4756 N.2 0 **** -0.374
5591 N3 3.62033 22.0605 21.2881 N.2 0 **** -0.374
5592 N4 4.58836 21.0667 21.1713 N.2 0 **** 0.856
5593 O1 1.49559 19.5457 19.5944 O.2 0 **** -0.428
5594 O2 0.988402 18.596 21.4635 O.2 0 **** -0.428
5595 O3 5.68569 21.3037 21.6252 O.2 0 **** -0.428
5596 O4 4.26024 20.0377 20.622 O.2 0 **** -0.428
5597 H 2.27033 21.6574 19.7228 H 0 **** 0.053
5598 H 1.62733 22.7665 20.911 H 0 **** 0.053
5599 H 0.345177 20.553 23.1331 H 0 **** 0.053
5600 H 1.97458 19.9706 23.402 H 0 **** 0.053
5601 C1 7.0168 17.3817 30.009 C.3 0 **** 0.268
5602 C2 7.86009 18.4626 27.9053 C.3 0 **** 0.268
5603 N1 7.91361 19.6997 30.0205 N.2 0 **** 0.856
5604 N2 7.65532 18.512 29.3407 N.2 0 **** -0.374
5605 N3 5.64273 17.1795 29.5282 N.2 0 **** -0.374
5606 N4 4.6747 18.1733 29.6449 N.2 0 **** 0.856
5607 O1 7.76746 19.6943 31.2218 O.2 0 **** -0.428
5608 O2 8.27465 20.644 29.3528 O.2 0 **** -0.428
5609 O3 3.57737 17.9363 29.191 O.2 0 **** -0.428
5610 O4 5.00282 19.2023 30.1942 O.2 0 **** -0.428
5611 H 6.99273 17.5826 31.0934 H 0 **** 0.053
5612 H 7.63572 16.4735 29.9053 H 0 **** 0.053
5613 H 8.91788 18.687 27.6832 H 0 **** 0.053
5614 H 7.28848 19.2694 27.4142 H 0 **** 0.053
5615 C1 6.16487 16.9556 26.8321 C.3 0 **** 0.268
5616 C2 5.32158 15.8747 28.9358 C.3 0 **** 0.268
5617 N1 5.26805 14.6376 26.8206 N.2 0 **** 0.856
5618 N2 5.52635 15.8253 27.5004 N.2 0 **** -0.374
5619 N3 7.53894 17.1578 27.3129 N.2 0 **** -0.374
5620 N4 8.50696 16.164 27.1961 N.2 0 **** 0.856
5621 O1 5.4142 14.643 25.6192 O.2 0 **** -0.428
5622 O2 4.90701 13.6933 27.4883 O.2 0 **** -0.428
5623 O3 9.60429 16.401 27.65 O.2 0 **** -0.428
5624 O4 8.17884 15.135 26.6468 O.2 0 **** -0.428
5625 H 6.18894 16.7547 25.7477 H 0 **** 0.053
5626 H 5.54594 17.8638 26.9358 H 0 **** 0.053
5627 H 4.26378 15.6503 29.1579 H 0 **** 0.053
5628 H 5.89318 15.068 29.4268 H 0 **** 0.053
5629 C1 57.2507 19.019 5.90975 C.3 0 **** 0.268
5630 C2 58.094 20.0999 3.80604 C.3 0 **** 0.268
5631 N1 58.1475 21.337 5.92124 N.2 0 **** 0.856
5632 N2 57.8892 20.1493 5.24148 N.2 0 **** -0.374
5633 N3 55.8766 18.8168 5.42894 N.2 0 **** -0.374
5634 N4 54.9086 19.8106 5.54572 N.2 0 **** 0.856
5635 O1 58.0014 21.3317 7.12261 O.2 0 **** -0.428
5636 O2 58.5085 22.2814 5.25354 O.2 0 **** -0.428
5637 O3 53.8113 19.5737 5.09182 O.2 0 **** -0.428
5638 O4 55.2367 20.8396 6.095 O.2 0 **** -0.428
5639 H 57.2266 19.2199 6.99418 H 0 **** 0.053
5640 H 57.8696 18.1108 5.80608 H 0 **** 0.053
5641 H 59.1518 20.3244 3.58397 H 0 **** 0.053
5642 H 57.5224 20.9067 3.31501 H 0 **** 0.053
5643 C1 56.3988 18.593 2.73287 C.3 0 **** 0.268
5644 C2 55.5555 17.5121 4.83657 C.3 0 **** 0.268
5645 N1 55.5019 16.2749 2.72137 N.2 0 **** 0.856
5646 N2 55.7602 17.4626 3.40114 N.2 0 **** -0.374
5647 N3 57.7728 18.7952 3.21367 N.2 0 **** -0.374
5648 N4 58.7409 17.8014 3.0969 N.2 0 **** 0.856
5649 O1 55.6481 16.2803 1.52 O.2 0 **** -0.428
5650 O2 55.1409 15.3306 3.38907 O.2 0 **** -0.428
5651 O3 59.8382 18.0383 3.5508 O.2 0 **** -0.428
5652 O4 58.4127 16.7723 2.54761 O.2 0 **** -0.428
5653 H 56.4228 18.392 1.64843 H 0 **** 0.053
5654 H 55.7798 19.5011 2.83654 H 0 **** 0.053
5655 H 54.4977 17.2876 5.05864 H 0 **** 0.053
5656 H 56.1271 16.7053 5.3276 H 0 **** 0.053
5657 C1 61.1693 14.1163 11.9346 C.3 0 **** 0.268
5658 C2 62.0126 15.1972 9.83085 C.3 0 **** 0.268
5659 N1 62.0661 16.4343 11.946 N.2 0 **** 0.856
5660 N2 61.8078 15.2467 11.2663 N.2 0 **** -0.374
5661 N3 59.7952 13.9141 11.4537 N.2 0 **** -0.374
5662 N4 58.8272 14.9079 11.5705 N.2 0 **** 0.856
5663 O1 61.92 16.429 13.1474 O.2 0 **** -0.428
5664 O2 62.4272 17.3787 11.2783 O.2 0 **** -0.428
5665 O3 57.7299 14.671 11.1166 O.2 0 **** -0.428
5666 O4 59.1553 15.9369 12.1198 O.2 0 **** -0.428
5667 H 61.1452 14.3173 13.019 H 0 **** 0.053
5668 H 61.7882 13.2082 11.8309 H 0 **** 0.053
5669 H 63.0704 15.4217 9.60877 H 0 **** 0.053
5670 H 61.441 16.004 9.33982 H 0 **** 0.053
5671 C1 60.3174 13.6903 8.75767 C.3 0 **** 0.268
5672 C2 59.4741 12.6094 10.8614 C.3 0 **** 0.268
5673 N1 59.4205 11.3723 8.74618 N.2 0 **** 0.856
5674 N2 59.6788 12.56 9.42594 N.2 0 **** -0.374
5675 N3 61.6914 13.8925 9.23848 N.2 0 **** -0.374
5676 N4 62.6595 12.8987 9.1217 N.2 0 **** 0.856
5677 O1 59.5667 11.3776 7.54481 O.2 0 **** -0.428
5678 O2 59.0595 10.4279 9.41388 O.2 0 **** -0.428
5679 O3 63.7568 13.1356 9.5756 O.2 0 **** -0.428
5680 O4 62.3313 11.8697 8.57242 O.2 0 **** -0.428
5681 H 60.3414 13.4893 7.67323 H 0 **** 0.053
5682 H 59.6984 14.5985 8.86134 H 0 **** 0.053
5683 H 58.4163 12.3849 11.0834 H 0 **** 0.053
5684 H 60.0457 11.8026 11.3524 H 0 **** 0.053
5685 C1 65.0879 9.21367 17.9594 C.3 0 **** 0.268
5686 C2 65.9312 10.2946 15.8557 C.3 0 **** 0.268
5687 N1 65.9847 11.5317 17.9709 N.2 0 **** 0.856
5688 N2 65.7264 10.344 17.2911 N.2 0 **** -0.374
5689 N3 63.7138 9.01146 17.4786 N.2 0 **** -0.374
5690 N4 62.7458 10.0053 17.5953 N.2 0 **** 0.856
5691 O1 65.8386 11.5263 19.1722 O.2 0 **** -0.428
5692 O2 66.3458 12.476 17.3032 O.2 0 **** -0.428
5693 O3 61.6485 9.76831 17.1414 O.2 0 **** -0.428
5694 O4 63.0739 11.0343 18.1446 O.2 0 **** -0.428
5695 H 65.0638 9.41459 19.0438 H 0 **** 0.053
5696 H 65.7068 8.30549 17.8557 H 0 **** 0.053
5697 H 66.989 10.519 15.6336 H 0 **** 0.053
5698 H 65.3596 11.1013 15.3646 H 0 **** 0.053
5699 C1 64.236 8.7876 14.7825 C.3 0 **** 0.268
5700 C2 63.3927 7.7067 16.8862 C.3 0 **** 0.268
5701 N1 63.3392 6.4696 14.771 N.2 0 **** 0.856
5702 N2 63.5975 7.65729 15.4507 N.2 0 **** -0.374
5703 N3 65.61 8.98981 15.2633 N.2 0 **** -0.374
5704 N4 66.5781 7.996 15.1465 N.2 0 **** 0.856
5705 O1 63.4853 6.47495 13.5696 O.2 0 **** -0.428
5706 O2 62.9781 5.52526 15.4387 O.2 0 **** -0.428
5707 O3 67.6754 8.23295 15.6004 O.2 0 **** -0.428
5708 O4 66.2499 6.96699 14.5972 O.2 0 **** -0.428
5709 H 64.26 8.58667 13.698 H 0 **** 0.053
5710 H 63.617 9.69577 14.8861 H 0 **** 0.053
5711 H 62.3349 7.48227 17.1083 H 0 **** 0.053
5712 H 63.9643 6.89992 17.3772 H 0 **** 0.053
5713 C1 44.069 23.9217 5.90975 C.3 0 **** 0.268
5714 C2 44.9123 25.0026 3.80604 C.3 0 **** 0.268
5715 N1 44.9658 26.2397 5.92124 N.2 0 **** 0.856
5716 N2 44.7075 25.052 5.24148 N.2 0 **** -0.374
5717 N3 42.695 23.7195 5.42894 N.2 0 **** -0.374
5718 N4 41.7269 24.7133 5.54572 N.2 0 **** 0.856
5719 O1 44.8197 26.2343 7.12261 O.2 0 **** -0.428
5720 O2 45.3269 27.184 5.25354 O.2 0 **** -0.428
5721 O3 40.6296 24.4763 5.09182 O.2 0 **** -0.428
5722 O4 42.055 25.7423 6.095 O.2 0 **** -0.428
5723 H 44.045 24.1226 6.99418 H 0 **** 0.053
5724 H 44.688 23.0135 5.80608 H 0 **** 0.053
5725 H 45.9701 25.227 3.58397 H 0 **** 0.053
5726 H 44.3407 25.8094 3.31501 H 0 **** 0.053
5727 C1 43.2171 23.4956 2.73287 C.3 0 **** 0.268
5728 C2 42.3738 22.4147 4.83657 C.3 0 **** 0.268
5729 N1 42.3203 21.1776 2.72137 N.2 0 **** 0.856
5730 N2 42.5786 22.3653 3.40114 N.2 0 **** -0.374
5731 N3 44.5912 23.6978 3.21367 N.2 0 **** -0.374
5732 N4 45.5592 22.704 3.0969 N.2 0 **** 0.856
5733 O1 42.4664 21.183 1.52 O.2 0 **** -0.428
5734 O2 41.9592 20.2333 3.38907 O.2 0 **** -0.428
5735 O3 46.6565 22.941 3.5508 O.2 0 **** -0.428
5736 O4 45.2311 21.675 2.54761 O.2 0 **** -0.428
5737 H 43.2412 23.2947 1.64843 H 0 **** 0.053
5738 H 42.5982 24.4038 2.83654 H 0 **** 0.053
5739 H 41.316 22.1903 5.05864 H 0 **** 0.053
5740 H 42.9454 21.608 5.3276 H 0 **** 0.053
5741 C1 47.9876 19.019 11.9346 C.3 0 **** 0.268
5742 C2 48.8309 20.0999 9.83085 C.3 0 **** 0.268
5743 N1 48.8844 21.337 11.946 N.2 0 **** 0.856
5744 N2 48.6261 20.1493 11.2663 N.2 0 **** -0.374
5745 N3 46.6136 18.8168 11.4537 N.2 0 **** -0.374
5746 N4 45.6455 19.8106 11.5705 N.2 0 **** 0.856
5747 O1 48.7383 21.3317 13.1474 O.2 0 **** -0.428
5748 O2 49.2455 22.2814 11.2783 O.2 0 **** -0.428
5749 O3 44.5482 19.5737 11.1166 O.2 0 **** -0.428
5750 O4 45.9737 20.8396 12.1198 O.2 0 **** -0.428
5751 H 47.9636 19.2199 13.019 H 0 **** 0.053
5752 H 48.6066 18.1108 11.8309 H 0 **** 0.053
5753 H 49.8887 20.3244 9.60877 H 0 **** 0.053
5754 H 48.2593 20.9067 9.33982 H 0 **** 0.053
5755 C1 47.1357 18.593 8.75767 C.3 0 **** 0.268
5756 C2 46.2924 17.5121 10.8614 C.3 0 **** 0.268
5757 N1 46.2389 16.2749 8.74618 N.2 0 **** 0.856
5758 N2 46.4972 17.4626 9.42594 N.2 0 **** -0.374
5759 N3 48.5098 18.7952 9.23848 N.2 0 **** -0.374
5760 N4 49.4778 17.8014 9.1217 N.2 0 **** 0.856
5761 O1 46.385 16.2803 7.54481 O.2 0 **** -0.428
5762 O2 45.8778 15.3306 9.41388 O.2 0 **** -0.428
5763 O3 50.5751 18.0383 9.5756 O.2 0 **** -0.428
5764 O4 49.1497 16.7723 8.57242 O.2 0 **** -0.428
5765 H 47.1598 18.392 7.67323 H 0 **** 0.053
5766 H 46.5168 19.5011 8.86134 H 0 **** 0.053
5767 H 45.2346 17.2876 11.0834 H 0 **** 0.053
5768 H 46.864 16.7053 11.3524 H 0 **** 0.053
5769 C1 51.9062 14.1163 17.9594 C.3 0 **** 0.268
5770 C2 52.7495 15.1972 15.8557 C.3 0 **** 0.268
5771 N1 52.8031 16.4343 17.9709 N.2 0 **** 0.856
5772 N2 52.5448 15.2467 17.2911 N.2 0 **** -0.374
5773 N3 50.5322 13.9141 17.4786 N.2 0 **** -0.374
5774 N4 49.5641 14.9079 17.5953 N.2 0 **** 0.856
5775 O1 52.6569 16.429 19.1722 O.2 0 **** -0.428
5776 O2 53.1641 17.3787 17.3032 O.2 0 **** -0.428
5777 O3 48.4668 14.671 17.1414 O.2 0 **** -0.428
5778 O4 49.8923 15.9369 18.1446 O.2 0 **** -0.428
5779 H 51.8822 14.3173 19.0438 H 0 **** 0.053
5780 H 52.5252 13.2082 17.8557 H 0 **** 0.053
5781 H 53.8073 15.4217 15.6336 H 0 **** 0.053
5782 H 52.1779 16.004 15.3646 H 0 **** 0.053
5783 C1 51.0543 13.6903 14.7825 C.3 0 **** 0.268
5784 C2 50.211 12.6094 16.8862 C.3 0 **** 0.268
5785 N1 50.1575 11.3723 14.771 N.2 0 **** 0.856
5786 N2 50.4158 12.56 15.4507 N.2 0 **** -0.374
5787 N3 52.4284 13.8925 15.2633 N.2 0 **** -0.374
5788 N4 53.3964 12.8987 15.1465 N.2 0 **** 0.856
5789 O1 50.3036 11.3776 13.5696 O.2 0 **** -0.428
5790 O2 49.7965 10.4279 15.4387 O.2 0 **** -0.428
5791 O3 54.4937 13.1356 15.6004 O.2 0 **** -0.428
5792 O4 53.0683 11.8697 14.5972 O.2 0 **** -0.428
5793 H 51.0784 13.4893 13.698 H 0 **** 0.053
5794 H 50.4354 14.5985 14.8861 H 0 **** 0.053
5795 H 49.1532 12.3849 17.1083 H 0 **** 0.053
5796 H 50.7826 11.8026 17.3772 H 0 **** 0.053
5797 C1 55.8248 9.21367 23.9842 C.3 0 **** 0.268
5798 C2 56.6681 10.2946 21.8805 C.3 0 **** 0.268
5799 N1 56.7217 11.5317 23.9957 N.2 0 **** 0.856
5800 N2 56.4634 10.344 23.3159 N.2 0 **** -0.374
5801 N3 54.4508 9.01146 23.5034 N.2 0 **** -0.374
5802 N4 53.4827 10.0053 23.6201 N.2 0 **** 0.856
5803 O1 56.5755 11.5263 25.197 O.2 0 **** -0.428
5804 O2 57.0827 12.476 23.328 O.2 0 **** -0.428
5805 O3 52.3854 9.76831 23.1662 O.2 0 **** -0.428
5806 O4 53.8109 11.0343 24.1694 O.2 0 **** -0.428
5807 H 55.8008 9.41459 25.0686 H 0 **** 0.053
5808 H 56.4438 8.30549 23.8805 H 0 **** 0.053
5809 H 57.7259 10.519 21.6584 H 0 **** 0.053
5810 H 56.0965 11.1013 21.3894 H 0 **** 0.053
5811 C1 54.9729 8.7876 20.8073 C.3 0 **** 0.268
5812 C2 54.1296 7.7067 22.911 C.3 0 **** 0.268
5813 N1 54.0761 6.4696 20.7958 N.2 0 **** 0.856
5814 N2 54.3344 7.65729 21.4756 N.2 0 **** -0.374
5815 N3 56.347 8.98981 21.2881 N.2 0 **** -0.374
5816 N4 57.315 7.996 21.1713 N.2 0 **** 0.856
5817 O1 54.2222 6.47495 19.5944 O.2 0 **** -0.428
5818 O2 53.7151 5.52526 21.4635 O.2 0 **** -0.428
5819 O3 58.4123 8.23295 21.6252 O.2 0 **** -0.428
5820 O4 56.9869 6.96699 20.622 O.2 0 **** -0.428
5821 H 54.997 8.58667 19.7228 H 0 **** 0.053
5822 H 54.354 9.69577 20.911 H 0 **** 0.053
5823 H 53.0718 7.48227 23.1331 H 0 **** 0.053
5824 H 54.7012 6.89992 23.402 H 0 **** 0.053
5825 C1 30.8874 28.8244 5.90975 C.3 0 **** 0.268
5826 C2 31.7306 29.9053 3.80604 C.3 0 **** 0.268
5827 N1 31.7842 31.1424 5.92124 N.2 0 **** 0.856
5828 N2 31.5259 29.9547 5.24148 N.2 0 **** -0.374
5829 N3 29.5133 28.6222 5.42894 N.2 0 **** -0.374
5830 N4 28.5453 29.616 5.54572 N.2 0 **** 0.856
5831 O1 31.638 31.137 7.12261 O.2 0 **** -0.428
5832 O2 32.1452 32.0867 5.25354 O.2 0 **** -0.428
5833 O3 27.4479 29.379 5.09182 O.2 0 **** -0.428
5834 O4 28.8734 30.645 6.095 O.2 0 **** -0.428
5835 H 30.8633 29.0253 6.99418 H 0 **** 0.053
5836 H 31.5063 27.9162 5.80608 H 0 **** 0.053
5837 H 32.7884 30.1297 3.58397 H 0 **** 0.053
5838 H 31.159 30.712 3.31501 H 0 **** 0.053
5839 C1 30.0354 28.3983 2.73287 C.3 0 **** 0.268
5840 C2 29.1921 27.3174 4.83657 C.3 0 **** 0.268
5841 N1 29.1386 26.0803 2.72137 N.2 0 **** 0.856
5842 N2 29.3969 27.268 3.40114 N.2 0 **** -0.374
5843 N3 31.4095 28.6005 3.21367 N.2 0 **** -0.374
5844 N4 32.3775 27.6067 3.0969 N.2 0 **** 0.856
5845 O1 29.2848 26.0857 1.52 O.2 0 **** -0.428
5846 O2 28.7776 25.136 3.38907 O.2 0 **** -0.428
5847 O3 33.4749 27.8437 3.5508 O.2 0 **** -0.428
5848 O4 32.0494 26.5777 2.54761 O.2 0 **** -0.428
5849 H 30.0595 28.1974 1.64843 H 0 **** 0.053
5850 H 29.4165 29.3065 2.83654 H 0 **** 0.053
5851 H 28.1343 27.093 5.05864 H 0 **** 0.053
5852 H 29.7637 26.5106 5.3276 H 0 **** 0.053
5853 C1 34.806 23.9217 11.9346 C.3 0 **** 0.268
5854 C2 35.6493 25.0026 9.83085 C.3 0 **** 0.268
5855 N1 35.7028 26.2397 11.946 N.2 0 **** 0.856
5856 N2 35.4445 25.052 11.2663 N.2 0 **** -0.374
5857 N3 33.4319 23.7195 11.4537 N.2 0 **** -0.374
5858 N4 32.4639 24.7133 11.5705 N.2 0 **** 0.856
5859 O1 35.5566 26.2343 13.1474 O.2 0 **** -0.428
5860 O2 36.0638 27.184 11.2783 O.2 0 **** -0.428
5861 O3 31.3665 24.4763 11.1166 O.2 0 **** -0.428
5862 O4 32.792 25.7423 12.1198 O.2 0 **** -0.428
5863 H 34.7819 24.1226 13.019 H 0 **** 0.053
5864 H 35.4249 23.0135 11.8309 H 0 **** 0.053
5865 H 36.707 25.227 9.60877 H 0 **** 0.053
5866 H 35.0776 25.8094 9.33982 H 0 **** 0.053
5867 C1 33.954 23.4956 8.75767 C.3 0 **** 0.268
5868 C2 33.1107 22.4147 10.8614 C.3 0 **** 0.268
5869 N1 33.0572 21.1776 8.74618 N.2 0 **** 0.856
5870 N2 33.3155 22.3653 9.42594 N.2 0 **** -0.374
5871 N3 35.3281 23.6978 9.23848 N.2 0 **** -0.374
5872 N4 36.2961 22.704 9.1217 N.2 0 **** 0.856
5873 O1 33.2034 21.183 7.54481 O.2 0 **** -0.428
5874 O2 32.6962 20.2333 9.41388 O.2 0 **** -0.428
5875 O3 37.3935 22.941 9.5756 O.2 0 **** -0.428
5876 O4 35.968 21.675 8.57242 O.2 0 **** -0.428
5877 H 33.9781 23.2947 7.67323 H 0 **** 0.053
5878 H 33.3351 24.4038 8.86134 H 0 **** 0.053
5879 H 32.053 22.1903 11.0834 H 0 **** 0.053
5880 H 33.6824 21.608 11.3524 H 0 **** 0.053
5881 C1 38.7246 19.019 17.9594 C.3 0 **** 0.268
5882 C2 39.5679 20.0999 15.8557 C.3 0 **** 0.268
5883 N1 39.6214 21.337 17.9709 N.2 0 **** 0.856
5884 N2 39.3631 20.1493 17.2911 N.2 0 **** -0.374
5885 N3 37.3505 18.8168 17.4786 N.2 0 **** -0.374
5886 N4 36.3825 19.8106 17.5953 N.2 0 **** 0.856
5887 O1 39.4752 21.3317 19.1722 O.2 0 **** -0.428
5888 O2 39.9824 22.2814 17.3032 O.2 0 **** -0.428
5889 O3 35.2851 19.5737 17.1414 O.2 0 **** -0.428
5890 O4 36.7106 20.8396 18.1446 O.2 0 **** -0.428
5891 H 38.7005 19.2199 19.0438 H 0 **** 0.053
5892 H 39.3435 18.1108 17.8557 H 0 **** 0.053
5893 H 40.6257 20.3244 15.6336 H 0 **** 0.053
5894 H 38.9963 20.9067 15.3646 H 0 **** 0.053
5895 C1 37.8726 18.593 14.7825 C.3 0 **** 0.268
5896 C2 37.0294 17.5121 16.8862 C.3 0 **** 0.268
5897 N1 36.9758 16.2749 14.771 N.2 0 **** 0.856
5898 N2 37.2341 17.4626 15.4507 N.2 0 **** -0.374
5899 N3 39.2467 18.7952 15.2633 N.2 0 **** -0.374
5900 N4 40.2147 17.8014 15.1465 N.2 0 **** 0.856
5901 O1 37.122 16.2803 13.5696 O.2 0 **** -0.428
5902 O2 36.6148 15.3306 15.4387 O.2 0 **** -0.428
5903 O3 41.3121 18.0383 15.6004 O.2 0 **** -0.428
5904 O4 39.8866 16.7723 14.5972 O.2 0 **** -0.428
5905 H 37.8967 18.392 13.698 H 0 **** 0.053
5906 H 37.2537 19.5011 14.8861 H 0 **** 0.053
5907 H 35.9716 17.2876 17.1083 H 0 **** 0.053
5908 H 37.601 16.7053 17.3772 H 0 **** 0.053
5909 C1 42.6432 14.1163 23.9842 C.3 0 **** 0.268
5910 C2 43.4865 15.1972 21.8805 C.3 0 **** 0.268
5911 N1 43.54 16.4343 23.9957 N.2 0 **** 0.856
5912 N2 43.2817 15.2467 23.3159 N.2 0 **** -0.374
5913 N3 41.2691 13.9141 23.5034 N.2 0 **** -0.374
5914 N4 40.3011 14.9079 23.6201 N.2 0 **** 0.856
5915 O1 43.3938 16.429 25.197 O.2 0 **** -0.428
5916 O2 43.901 17.3787 23.328 O.2 0 **** -0.428
5917 O3 39.2038 14.671 23.1662 O.2 0 **** -0.428
5918 O4 40.6292 15.9369 24.1694 O.2 0 **** -0.428
5919 H 42.6191 14.3173 25.0686 H 0 **** 0.053
5920 H 43.2621 13.2082 23.8805 H 0 **** 0.053
5921 H 44.5443 15.4217 21.6584 H 0 **** 0.053
5922 H 42.9149 16.004 21.3894 H 0 **** 0.053
5923 C1 41.7913 13.6903 20.8073 C.3 0 **** 0.268
5924 C2 40.948 12.6094 22.911 C.3 0 **** 0.268
5925 N1 40.8944 11.3723 20.7958 N.2 0 **** 0.856
5926 N2 41.1527 12.56 21.4756 N.2 0 **** -0.374
5927 N3 43.1653 13.8925 21.2881 N.2 0 **** -0.374
5928 N4 44.1333 12.8987 21.1713 N.2 0 **** 0.856
5929 O1 41.0406 11.3776 19.5944 O.2 0 **** -0.428
5930 O2 40.5334 10.4279 21.4635 O.2 0 **** -0.428
5931 O3 45.2307 13.1356 21.6252 O.2 0 **** -0.428
5932 O4 43.8052 11.8697 20.622 O.2 0 **** -0.428
5933 H 41.8153 13.4893 19.7228 H 0 **** 0.053
5934 H 41.1723 14.5985 20.911 H 0 **** 0.053
5935 H 39.8902 12.3849 23.1331 H 0 **** 0.053
5936 H 41.5196 11.8026 23.402 H 0 **** 0.053
5937 C1 46.5618 9.21367 30.009 C.3 0 **** 0.268
5938 C2 47.4051 10.2946 27.9053 C.3 0 **** 0.268
5939 N1 47.4586 11.5317 30.0205 N.2 0 **** 0.856
5940 N2 47.2003 10.344 29.3407 N.2 0 **** -0.374
5941 N3 45.1877 9.01146 29.5282 N.2 0 **** -0.374
5942 N4 44.2197 10.0053 29.6449 N.2 0 **** 0.856
5943 O1 47.3125 11.5263 31.2218 O.2 0 **** -0.428
5944 O2 47.8196 12.476 29.3528 O.2 0 **** -0.428
5945 O3 43.1224 9.76831 29.191 O.2 0 **** -0.428
5946 O4 44.5478 11.0343 30.1942 O.2 0 **** -0.428
5947 H 46.5377 9.41459 31.0934 H 0 **** 0.053
5948 H 47.1807 8.30549 29.9053 H 0 **** 0.053
5949 H 48.4629 10.519 27.6832 H 0 **** 0.053
5950 H 46.8335 11.1013 27.4142 H 0 **** 0.053
5951 C1 45.7099 8.7876 26.8321 C.3 0 **** 0.268
5952 C2 44.8666 7.7067 28.9358 C.3 0 **** 0.268
5953 N1 44.813 6.4696 26.8206 N.2 0 **** 0.856
5954 N2 45.0713 7.65729 27.5004 N.2 0 **** -0.374
5955 N3 47.0839 8.98981 27.3129 N.2 0 **** -0.374
5956 N4 48.052 7.996 27.1961 N.2 0 **** 0.856
5957 O1 44.9592 6.47495 25.6192 O.2 0 **** -0.428
5958 O2 44.452 5.52526 27.4883 O.2 0 **** -0.428
5959 O3 49.1493 8.23295 27.65 O.2 0 **** -0.428
5960 O4 47.7238 6.96699 26.6468 O.2 0 **** -0.428
5961 H 45.7339 8.58667 25.7477 H 0 **** 0.053
5962 H 45.0909 9.69577 26.9358 H 0 **** 0.053
5963 H 43.8088 7.48227 29.1579 H 0 **** 0.053
5964 H 45.4382 6.89992 29.4268 H 0 **** 0.053
5965 C1 17.7057 33.727 5.90975 C.3 0 **** 0.268
5966 C2 18.549 34.8079 3.80604 C.3 0 **** 0.268
5967 N1 18.6025 36.0451 5.92124 N.2 0 **** 0.856
5968 N2 18.3442 34.8574 5.24148 N.2 0 **** -0.374
5969 N3 16.3316 33.5248 5.42894 N.2 0 **** -0.374
5970 N4 15.3636 34.5186 5.54572 N.2 0 **** 0.856
5971 O1 18.4564 36.0397 7.12261 O.2 0 **** -0.428
5972 O2 18.9636 36.9894 5.25354 O.2 0 **** -0.428
5973 O3 14.2663 34.2817 5.09182 O.2 0 **** -0.428
5974 O4 15.6917 35.5477 6.095 O.2 0 **** -0.428
5975 H 17.6816 33.928 6.99418 H 0 **** 0.053
5976 H 18.3246 32.8189 5.80608 H 0 **** 0.053
5977 H 19.6068 35.0324 3.58397 H 0 **** 0.053
5978 H 17.9774 35.6147 3.31501 H 0 **** 0.053
5979 C1 16.8538 33.301 2.73287 C.3 0 **** 0.268
5980 C2 16.0105 32.2201 4.83657 C.3 0 **** 0.268
5981 N1 15.9569 30.983 2.72137 N.2 0 **** 0.856
5982 N2 16.2152 32.1707 3.40114 N.2 0 **** -0.374
5983 N3 18.2278 33.5032 3.21367 N.2 0 **** -0.374
5984 N4 19.1959 32.5094 3.0969 N.2 0 **** 0.856
5985 O1 16.1031 30.9883 1.52 O.2 0 **** -0.428
5986 O2 15.5959 30.0386 3.38907 O.2 0 **** -0.428
5987 O3 20.2932 32.7463 3.5508 O.2 0 **** -0.428
5988 O4 18.8677 31.4804 2.54761 O.2 0 **** -0.428
5989 H 16.8778 33.1001 1.64843 H 0 **** 0.053
5990 H 16.2348 34.2092 2.83654 H 0 **** 0.053
5991 H 14.9527 31.9956 5.05864 H 0 **** 0.053
5992 H 16.5821 31.4133 5.3276 H 0 **** 0.053
5993 C1 21.6243 28.8244 11.9346 C.3 0 **** 0.268
5994 C2 22.4676 29.9053 9.83085 C.3 0 **** 0.268
5995 N1 22.5211 31.1424 11.946 N.2 0 **** 0.856
5996 N2 22.2628 29.9547 11.2663 N.2 0 **** -0.374
5997 N3 20.2502 28.6222 11.4537 N.2 0 **** -0.374
5998 N4 19.2822 29.616 11.5705 N.2 0 **** 0.856
5999 O1 22.375 31.137 13.1474 O.2 0 **** -0.428
6000 O2 22.8822 32.0867 11.2783 O.2 0 **** -0.428
6001 O3 18.1849 29.379 11.1166 O.2 0 **** -0.428
6002 O4 19.6103 30.645 12.1198 O.2 0 **** -0.428
6003 H 21.6002 29.0253 13.019 H 0 **** 0.053
6004 H 22.2432 27.9162 11.8309 H 0 **** 0.053
6005 H 23.5254 30.1297 9.60877 H 0 **** 0.053
6006 H 21.896 30.712 9.33982 H 0 **** 0.053
6007 C1 20.7724 28.3983 8.75767 C.3 0 **** 0.268
6008 C2 19.9291 27.3174 10.8614 C.3 0 **** 0.268
6009 N1 19.8756 26.0803 8.74618 N.2 0 **** 0.856
6010 N2 20.1339 27.268 9.42594 N.2 0 **** -0.374
6011 N3 22.1464 28.6005 9.23848 N.2 0 **** -0.374
6012 N4 23.1145 27.6067 9.1217 N.2 0 **** 0.856
6013 O1 20.0217 26.0857 7.54481 O.2 0 **** -0.428
6014 O2 19.5145 25.136 9.41388 O.2 0 **** -0.428
6015 O3 24.2118 27.8437 9.5756 O.2 0 **** -0.428
6016 O4 22.7863 26.5777 8.57242 O.2 0 **** -0.428
6017 H 20.7964 28.1974 7.67323 H 0 **** 0.053
6018 H 20.1534 29.3065 8.86134 H 0 **** 0.053
6019 H 18.8713 27.093 11.0834 H 0 **** 0.053
6020 H 20.5007 26.5106 11.3524 H 0 **** 0.053
6021 C1 25.5429 23.9217 17.9594 C.3 0 **** 0.268
6022 C2 26.3862 25.0026 15.8557 C.3 0 **** 0.268
6023 N1 26.4397 26.2397 17.9709 N.2 0 **** 0.856
6024 N2 26.1814 25.052 17.2911 N.2 0 **** -0.374
6025 N3 24.1688 23.7195 17.4786 N.2 0 **** -0.374
6026 N4 23.2008 24.7133 17.5953 N.2 0 **** 0.856
6027 O1 26.2936 26.2343 19.1722 O.2 0 **** -0.428
6028 O2 26.8008 27.184 17.3032 O.2 0 **** -0.428
6029 O3 22.1035 24.4763 17.1414 O.2 0 **** -0.428
6030 O4 23.5289 25.7423 18.1446 O.2 0 **** -0.428
6031 H 25.5188 24.1226 19.0438 H 0 **** 0.053
6032 H 26.1618 23.0135 17.8557 H 0 **** 0.053
6033 H 27.444 25.227 15.6336 H 0 **** 0.053
6034 H 25.8146 25.8094 15.3646 H 0 **** 0.053
6035 C1 24.691 23.4956 14.7825 C.3 0 **** 0.268
6036 C2 23.8477 22.4147 16.8862 C.3 0 **** 0.268
6037 N1 23.7942 21.1776 14.771 N.2 0 **** 0.856
6038 N2 24.0525 22.3653 15.4507 N.2 0 **** -0.374
6039 N3 26.065 23.6978 15.2633 N.2 0 **** -0.374
6040 N4 27.0331 22.704 15.1465 N.2 0 **** 0.856
6041 O1 23.9403 21.183 13.5696 O.2 0 **** -0.428
6042 O2 23.4331 20.2333 15.4387 O.2 0 **** -0.428
6043 O3 28.1304 22.941 15.6004 O.2 0 **** -0.428
6044 O4 26.705 21.675 14.5972 O.2 0 **** -0.428
6045 H 24.715 23.2947 13.698 H 0 **** 0.053
6046 H 24.0721 24.4038 14.8861 H 0 **** 0.053
6047 H 22.7899 22.1903 17.1083 H 0 **** 0.053
6048 H 24.4193 21.608 17.3772 H 0 **** 0.053
6049 C1 29.4615 19.019 23.9842 C.3 0 **** 0.268
6050 C2 30.3048 20.0999 21.8805 C.3 0 **** 0.268
6051 N1 30.3583 21.337 23.9957 N.2 0 **** 0.856
6052 N2 30.1 20.1493 23.3159 N.2 0 **** -0.374
6053 N3 28.0874 18.8168 23.5034 N.2 0 **** -0.374
6054 N4 27.1194 19.8106 23.6201 N.2 0 **** 0.856
6055 O1 30.2122 21.3317 25.197 O.2 0 **** -0.428
6056 O2 30.7194 22.2814 23.328 O.2 0 **** -0.428
6057 O3 26.0221 19.5737 23.1662 O.2 0 **** -0.428
6058 O4 27.4475 20.8396 24.1694 O.2 0 **** -0.428
6059 H 29.4374 19.2199 25.0686 H 0 **** 0.053
6060 H 30.0804 18.1108 23.8805 H 0 **** 0.053
6061 H 31.3626 20.3244 21.6584 H 0 **** 0.053
6062 H 29.7332 20.9067 21.3894 H 0 **** 0.053
6063 C1 28.6096 18.593 20.8073 C.3 0 **** 0.268
6064 C2 27.7663 17.5121 22.911 C.3 0 **** 0.268
6065 N1 27.7128 16.2749 20.7958 N.2 0 **** 0.856
6066 N2 27.9711 17.4626 21.4756 N.2 0 **** -0.374
6067 N3 29.9837 18.7952 21.2881 N.2 0 **** -0.374
6068 N4 30.9517 17.8014 21.1713 N.2 0 **** 0.856
6069 O1 27.8589 16.2803 19.5944 O.2 0 **** -0.428
6070 O2 27.3517 15.3306 21.4635 O.2 0 **** -0.428
6071 O3 32.049 18.0383 21.6252 O.2 0 **** -0.428
6072 O4 30.6236 16.7723 20.622 O.2 0 **** -0.428
6073 H 28.6337 18.392 19.7228 H 0 **** 0.053
6074 H 27.9907 19.5011 20.911 H 0 **** 0.053
6075 H 26.7085 17.2876 23.1331 H 0 **** 0.053
6076 H 28.3379 16.7053 23.402 H 0 **** 0.053
6077 C1 33.3801 14.1163 30.009 C.3 0 **** 0.268
6078 C2 34.2234 15.1972 27.9053 C.3 0 **** 0.268
6079 N1 34.2769 16.4343 30.0205 N.2 0 **** 0.856
6080 N2 34.0186 15.2467 29.3407 N.2 0 **** -0.374
6081 N3 32.0061 13.9141 29.5282 N.2 0 **** -0.374
6082 N4 31.038 14.9079 29.6449 N.2 0 **** 0.856
6083 O1 34.1308 16.429 31.2218 O.2 0 **** -0.428
6084 O2 34.638 17.3787 29.3528 O.2 0 **** -0.428
6085 O3 29.9407 14.671 29.191 O.2 0 **** -0.428
6086 O4 31.3661 15.9369 30.1942 O.2 0 **** -0.428
6087 H 33.3561 14.3173 31.0934 H 0 **** 0.053
6088 H 33.9991 13.2082 29.9053 H 0 **** 0.053
6089 H 35.2812 15.4217 27.6832 H 0 **** 0.053
6090 H 33.6518 16.004 27.4142 H 0 **** 0.053
6091 C1 32.5282 13.6903 26.8321 C.3 0 **** 0.268
6092 C2 31.6849 12.6094 28.9358 C.3 0 **** 0.268
6093 N1 31.6314 11.3723 26.8206 N.2 0 **** 0.856
6094 N2 31.8897 12.56 27.5004 N.2 0 **** -0.374
6095 N3 33.9023 13.8925 27.3129 N.2 0 **** -0.374
6096 N4 34.8703 12.8987 27.1961 N.2 0 **** 0.856
6097 O1 31.7775 11.3776 25.6192 O.2 0 **** -0.428
6098 O2 31.2703 10.4279 27.4883 O.2 0 **** -0.428
6099 O3 35.9676 13.1356 27.65 O.2 0 **** -0.428
6100 O4 34.5422 11.8697 26.6468 O.2 0 **** -0.428
6101 H 32.5523 13.4893 25.7477 H 0 **** 0.053
6102 H 31.9093 14.5985 26.9358 H 0 **** 0.053
6103 H 30.6271 12.3849 29.1579 H 0 **** 0.053
6104 H 32.2565 11.8026 29.4268 H 0 **** 0.053
6105 C1 4.52403 38.6297 5.90975 C.3 0 **** 0.268
6106 C2 5.36732 39.7106 3.80604 C.3 0 **** 0.268
6107 N1 5.42085 40.9477 5.92124 N.2 0 **** 0.856
6108 N2 5.16255 39.76 5.24148 N.2 0 **** -0.374
6109 N3 3.14996 38.4275 5.42894 N.2 0 **** -0.374
6110 N4 2.18194 39.4213 5.54572 N.2 0 **** 0.856
6111 O1 5.2747 40.9424 7.12261 O.2 0 **** -0.428
6112 O2 5.78189 41.8921 5.25354 O.2 0 **** -0.428
6113 O3 1.0846 39.1844 5.09182 O.2 0 **** -0.428
6114 O4 2.51006 40.4503 6.095 O.2 0 **** -0.428
6115 H 4.49996 38.8307 6.99418 H 0 **** 0.053
6116 H 5.14296 37.7216 5.80608 H 0 **** 0.053
6117 H 6.42512 39.9351 3.58397 H 0 **** 0.053
6118 H 4.79571 40.5174 3.31501 H 0 **** 0.053
6119 C1 3.6721 38.2037 2.73287 C.3 0 **** 0.268
6120 C2 2.82881 37.1228 4.83657 C.3 0 **** 0.268
6121 N1 2.77529 35.8857 2.72137 N.2 0 **** 0.856
6122 N2 3.03358 37.0733 3.40114 N.2 0 **** -0.374
6123 N3 5.04617 38.4059 3.21367 N.2 0 **** -0.374
6124 N4 6.0142 37.4121 3.0969 N.2 0 **** 0.856
6125 O1 2.92144 35.891 1.52 O.2 0 **** -0.428
6126 O2 2.41424 34.9413 3.38907 O.2 0 **** -0.428
6127 O3 7.11153 37.649 3.5508 O.2 0 **** -0.428
6128 O4 5.68608 36.3831 2.54761 O.2 0 **** -0.428
6129 H 3.69617 38.0027 1.64843 H 0 **** 0.053
6130 H 3.05317 39.1118 2.83654 H 0 **** 0.053
6131 H 1.77102 36.8983 5.05864 H 0 **** 0.053
6132 H 3.40042 36.316 5.3276 H 0 **** 0.053
6133 C1 8.44264 33.727 11.9346 C.3 0 **** 0.268
6134 C2 9.28593 34.8079 9.83085 C.3 0 **** 0.268
6135 N1 9.33946 36.0451 11.946 N.2 0 **** 0.856
6136 N2 9.08116 34.8574 11.2663 N.2 0 **** -0.374
6137 N3 7.06857 33.5248 11.4537 N.2 0 **** -0.374
6138 N4 6.10054 34.5186 11.5705 N.2 0 **** 0.856
6139 O1 9.19331 36.0397 13.1474 O.2 0 **** -0.428
6140 O2 9.7005 36.9894 11.2783 O.2 0 **** -0.428
6141 O3 5.00321 34.2817 11.1166 O.2 0 **** -0.428
6142 O4 6.42866 35.5477 12.1198 O.2 0 **** -0.428
6143 H 8.41857 33.928 13.019 H 0 **** 0.053
6144 H 9.06157 32.8189 11.8309 H 0 **** 0.053
6145 H 10.3437 35.0324 9.60877 H 0 **** 0.053
6146 H 8.71432 35.6147 9.33982 H 0 **** 0.053
6147 C1 7.59071 33.301 8.75767 C.3 0 **** 0.268
6148 C2 6.74742 32.2201 10.8614 C.3 0 **** 0.268
6149 N1 6.69389 30.983 8.74618 N.2 0 **** 0.856
6150 N2 6.95219 32.1707 9.42594 N.2 0 **** -0.374
6151 N3 8.96478 33.5032 9.23848 N.2 0 **** -0.374
6152 N4 9.93281 32.5094 9.1217 N.2 0 **** 0.856
6153 O1 6.84004 30.9883 7.54481 O.2 0 **** -0.428
6154 O2 6.33285 30.0386 9.41388 O.2 0 **** -0.428
6155 O3 11.0301 32.7463 9.5756 O.2 0 **** -0.428
6156 O4 9.60469 31.4804 8.57242 O.2 0 **** -0.428
6157 H 7.61478 33.1001 7.67323 H 0 **** 0.053
6158 H 6.97178 34.2092 8.86134 H 0 **** 0.053
6159 H 5.68963 31.9956 11.0834 H 0 **** 0.053
6160 H 7.31903 31.4133 11.3524 H 0 **** 0.053
6161 C1 12.3612 28.8244 17.9594 C.3 0 **** 0.268
6162 C2 13.2045 29.9053 15.8557 C.3 0 **** 0.268
6163 N1 13.2581 31.1424 17.9709 N.2 0 **** 0.856
6164 N2 12.9998 29.9547 17.2911 N.2 0 **** -0.374
6165 N3 10.9872 28.6222 17.4786 N.2 0 **** -0.374
6166 N4 10.0192 29.616 17.5953 N.2 0 **** 0.856
6167 O1 13.1119 31.137 19.1722 O.2 0 **** -0.428
6168 O2 13.6191 32.0867 17.3032 O.2 0 **** -0.428
6169 O3 8.92182 29.379 17.1414 O.2 0 **** -0.428
6170 O4 10.3473 30.645 18.1446 O.2 0 **** -0.428
6171 H 12.3372 29.0253 19.0438 H 0 **** 0.053
6172 H 12.9802 27.9162 17.8557 H 0 **** 0.053
6173 H 14.2623 30.1297 15.6336 H 0 **** 0.053
6174 H 12.6329 30.712 15.3646 H 0 **** 0.053
6175 C1 11.5093 28.3983 14.7825 C.3 0 **** 0.268
6176 C2 10.666 27.3174 16.8862 C.3 0 **** 0.268
6177 N1 10.6125 26.0803 14.771 N.2 0 **** 0.856
6178 N2 10.8708 27.268 15.4507 N.2 0 **** -0.374
6179 N3 12.8834 28.6005 15.2633 N.2 0 **** -0.374
6180 N4 13.8514 27.6067 15.1465 N.2 0 **** 0.856
6181 O1 10.7587 26.0857 13.5696 O.2 0 **** -0.428
6182 O2 10.2515 25.136 15.4387 O.2 0 **** -0.428
6183 O3 14.9487 27.8437 15.6004 O.2 0 **** -0.428
6184 O4 13.5233 26.5777 14.5972 O.2 0 **** -0.428
6185 H 11.5334 28.1974 13.698 H 0 **** 0.053
6186 H 10.8904 29.3065 14.8861 H 0 **** 0.053
6187 H 9.60823 27.093 17.1083 H 0 **** 0.053
6188 H 11.2376 26.5106 17.3772 H 0 **** 0.053
6189 C1 16.2799 23.9217 23.9842 C.3 0 **** 0.268
6190 C2 17.1231 25.0026 21.8805 C.3 0 **** 0.268
6191 N1 17.1767 26.2397 23.9957 N.2 0 **** 0.856
6192 N2 16.9184 25.052 23.3159 N.2 0 **** -0.374
6193 N3 14.9058 23.7195 23.5034 N.2 0 **** -0.374
6194 N4 13.9378 24.7133 23.6201 N.2 0 **** 0.856
6195 O1 17.0305 26.2343 25.197 O.2 0 **** -0.428
6196 O2 17.5377 27.184 23.328 O.2 0 **** -0.428
6197 O3 12.8404 24.4763 23.1662 O.2 0 **** -0.428
6198 O4 14.2659 25.7423 24.1694 O.2 0 **** -0.428
6199 H 16.2558 24.1226 25.0686 H 0 **** 0.053
6200 H 16.8988 23.0135 23.8805 H 0 **** 0.053
6201 H 18.1809 25.227 21.6584 H 0 **** 0.053
6202 H 16.5515 25.8094 21.3894 H 0 **** 0.053
6203 C1 15.4279 23.4956 20.8073 C.3 0 **** 0.268
6204 C2 14.5846 22.4147 22.911 C.3 0 **** 0.268
6205 N1 14.5311 21.1776 20.7958 N.2 0 **** 0.856
6206 N2 14.7894 22.3653 21.4756 N.2 0 **** -0.374
6207 N3 16.802 23.6978 21.2881 N.2 0 **** -0.374
6208 N4 17.77 22.704 21.1713 N.2 0 **** 0.856
6209 O1 14.6773 21.183 19.5944 O.2 0 **** -0.428
6210 O2 14.1701 20.2333 21.4635 O.2 0 **** -0.428
6211 O3 18.8674 22.941 21.6252 O.2 0 **** -0.428
6212 O4 17.4419 21.675 20.622 O.2 0 **** -0.428
6213 H 15.452 23.2947 19.7228 H 0 **** 0.053
6214 H 14.809 24.4038 20.911 H 0 **** 0.053
6215 H 13.5268 22.1903 23.1331 H 0 **** 0.053
6216 H 15.1562 21.608 23.402 H 0 **** 0.053
6217 C1 20.1985 19.019 30.009 C.3 0 **** 0.268
6218 C2 21.0418 20.0999 27.9053 C.3 0 **** 0.268
6219 N1 21.0953 21.337 30.0205 N.2 0 **** 0.856
6220 N2 20.837 20.1493 29.3407 N.2 0 **** -0.374
6221 N3 18.8244 18.8168 29.5282 N.2 0 **** -0.374
6222 N4 17.8564 19.8106 29.6449 N.2 0 **** 0.856
6223 O1 20.9491 21.3317 31.2218 O.2 0 **** -0.428
6224 O2 21.4563 22.2814 29.3528 O.2 0 **** -0.428
6225 O3 16.759 19.5737 29.191 O.2 0 **** -0.428
6226 O4 18.1845 20.8396 30.1942 O.2 0 **** -0.428
6227 H 20.1744 19.2199 31.0934 H 0 **** 0.053
6228 H 20.8174 18.1108 29.9053 H 0 **** 0.053
6229 H 22.0995 20.3244 27.6832 H 0 **** 0.053
6230 H 20.4701 20.9067 27.4142 H 0 **** 0.053
6231 C1 19.3465 18.593 26.8321 C.3 0 **** 0.268
6232 C2 18.5032 17.5121 28.9358 C.3 0 **** 0.268
6233 N1 18.4497 16.2749 26.8206 N.2 0 **** 0.856
6234 N2 18.708 17.4626 27.5004 N.2 0 **** -0.374
6235 N3 20.7206 18.7952 27.3129 N.2 0 **** -0.374
6236 N4 21.6886 17.8014 27.1961 N.2 0 **** 0.856
6237 O1 18.5959 16.2803 25.6192 O.2 0 **** -0.428
6238 O2 18.0887 15.3306 27.4883 O.2 0 **** -0.428
6239 O3 22.786 18.0383 27.65 O.2 0 **** -0.428
6240 O4 21.3605 16.7723 26.6468 O.2 0 **** -0.428
6241 H 19.3706 18.392 25.7477 H 0 **** 0.053
6242 H 18.7276 19.5011 26.9358 H 0 **** 0.053
6243 H 17.4454 17.2876 29.1579 H 0 **** 0.053
6244 H 19.0748 16.7053 29.4268 H 0 **** 0.053
6245 C1 3.09819 28.8244 23.9842 C.3 0 **** 0.268
6246 C2 3.94148 29.9053 21.8805 C.3 0 **** 0.268
6247 N1 3.99501 31.1424 23.9957 N.2 0 **** 0.856
6248 N2 3.73671 29.9547 23.3159 N.2 0 **** -0.374
6249 N3 1.72412 28.6222 23.5034 N.2 0 **** -0.374
6250 N4 0.756093 29.616 23.6201 N.2 0 **** 0.856
6251 O1 3.84886 31.137 25.197 O.2 0 **** -0.428
6252 O2 4.35605 32.0867 23.328 O.2 0 **** -0.428
6253 O3 -0.341237 29.379 23.1662 O.2 0 **** -0.428
6254 O4 1.08421 30.645 24.1694 O.2 0 **** -0.428
6255 H 3.07412 29.0253 25.0686 H 0 **** 0.053
6256 H 3.71712 27.9162 23.8805 H 0 **** 0.053
6257 H 4.99927 30.1297 21.6584 H 0 **** 0.053
6258 H 3.36987 30.712 21.3894 H 0 **** 0.053
6259 C1 2.24626 28.3983 20.8073 C.3 0 **** 0.268
6260 C2 1.40297 27.3174 22.911 C.3 0 **** 0.268
6261 N1 1.34944 26.0803 20.7958 N.2 0 **** 0.856
6262 N2 1.60774 27.268 21.4756 N.2 0 **** -0.374
6263 N3 3.62033 28.6005 21.2881 N.2 0 **** -0.374
6264 N4 4.58836 27.6067 21.1713 N.2 0 **** 0.856
6265 O1 1.49559 26.0857 19.5944 O.2 0 **** -0.428
6266 O2 0.988402 25.136 21.4635 O.2 0 **** -0.428
6267 O3 5.68569 27.8437 21.6252 O.2 0 **** -0.428
6268 O4 4.26024 26.5777 20.622 O.2 0 **** -0.428
6269 H 2.27033 28.1974 19.7228 H 0 **** 0.053
6270 H 1.62733 29.3065 20.911 H 0 **** 0.053
6271 H 0.345177 27.093 23.1331 H 0 **** 0.053
6272 H 1.97458 26.5106 23.402 H 0 **** 0.053
6273 C1 7.0168 23.9217 30.009 C.3 0 **** 0.268
6274 C2 7.86009 25.0026 27.9053 C.3 0 **** 0.268
6275 N1 7.91361 26.2397 30.0205 N.2 0 **** 0.856
6276 N2 7.65532 25.052 29.3407 N.2 0 **** -0.374
6277 N3 5.64273 23.7195 29.5282 N.2 0 **** -0.374
6278 N4 4.6747 24.7133 29.6449 N.2 0 **** 0.856
6279 O1 7.76746 26.2343 31.2218 O.2 0 **** -0.428
6280 O2 8.27465 27.184 29.3528 O.2 0 **** -0.428
6281 O3 3.57737 24.4763 29.191 O.2 0 **** -0.428
6282 O4 5.00282 25.7423 30.1942 O.2 0 **** -0.428
6283 H 6.99273 24.1226 31.0934 H 0 **** 0.053
6284 H 7.63572 23.0135 29.9053 H 0 **** 0.053
6285 H 8.91788 25.227 27.6832 H 0 **** 0.053
6286 H 7.28848 25.8094 27.4142 H 0 **** 0.053
6287 C1 6.16487 23.4956 26.8321 C.3 0 **** 0.268
6288 C2 5.32158 22.4147 28.9358 C.3 0 **** 0.268
6289 N1 5.26805 21.1776 26.8206 N.2 0 **** 0.856
6290 N2 5.52635 22.3653 27.5004 N.2 0 **** -0.374
6291 N3 7.53894 23.6978 27.3129 N.2 0 **** -0.374
6292 N4 8.50696 22.704 27.1961 N.2 0 **** 0.856
6293 O1 5.4142 21.183 25.6192 O.2 0 **** -0.428
6294 O2 4.90701 20.2333 27.4883 O.2 0 **** -0.428
6295 O3 9.60429 22.941 27.65 O.2 0 **** -0.428
6296 O4 8.17884 21.675 26.6468 O.2 0 **** -0.428
6297 H 6.18894 23.2947 25.7477 H 0 **** 0.053
6298 H 5.54594 24.4038 26.9358 H 0 **** 0.053
6299 H 4.26378 22.1903 29.1579 H 0 **** 0.053
6300 H 5.89318 21.608 29.4268 H 0 **** 0.053
6301 C1 57.2507 25.559 5.90975 C.3 0 **** 0.268
6302 C2 58.094 26.6399 3.80604 C.3 0 **** 0.268
6303 N1 58.1475 27.877 5.92124 N.2 0 **** 0.856
6304 N2 57.8892 26.6893 5.24148 N.2 0 **** -0.374
6305 N3 55.8766 25.3568 5.42894 N.2 0 **** -0.374
6306 N4 54.9086 26.3506 5.54572 N.2 0 **** 0.856
6307 O1 58.0014 27.8717 7.12261 O.2 0 **** -0.428
6308 O2 58.5085 28.8214 5.25354 O.2 0 **** -0.428
6309 O3 53.8113 26.1137 5.09182 O.2 0 **** -0.428
6310 O4 55.2367 27.3796 6.095 O.2 0 **** -0.428
6311 H 57.2266 25.7599 6.99418 H 0 **** 0.053
6312 H 57.8696 24.6508 5.80608 H 0 **** 0.053
6313 H 59.1518 26.8644 3.58397 H 0 **** 0.053
6314 H 57.5224 27.4467 3.31501 H 0 **** 0.053
6315 C1 56.3988 25.133 2.73287 C.3 0 **** 0.268
6316 C2 55.5555 24.0521 4.83657 C.3 0 **** 0.268
6317 N1 55.5019 22.8149 2.72137 N.2 0 **** 0.856
6318 N2 55.7602 24.0026 3.40114 N.2 0 **** -0.374
6319 N3 57.7728 25.3352 3.21367 N.2 0 **** -0.374
6320 N4 58.7409 24.3414 3.0969 N.2 0 **** 0.856
6321 O1 55.6481 22.8203 1.52 O.2 0 **** -0.428
6322 O2 55.1409 21.8706 3.38907 O.2 0 **** -0.428
6323 O3 59.8382 24.5783 3.5508 O.2 0 **** -0.428
6324 O4 58.4127 23.3123 2.54761 O.2 0 **** -0.428
6325 H 56.4228 24.932 1.64843 H 0 **** 0.053
6326 H 55.7798 26.0411 2.83654 H 0 **** 0.053
6327 H 54.4977 23.8276 5.05864 H 0 **** 0.053
6328 H 56.1271 23.2453 5.3276 H 0 **** 0.053
6329 C1 61.1693 20.6563 11.9346 C.3 0 **** 0.268
6330 C2 62.0126 21.7372 9.83085 C.3 0 **** 0.268
6331 N1 62.0661 22.9743 11.946 N.2 0 **** 0.856
6332 N2 61.8078 21.7867 11.2663 N.2 0 **** -0.374
6333 N3 59.7952 20.4541 11.4537 N.2 0 **** -0.374
6334 N4 58.8272 21.4479 11.5705 N.2 0 **** 0.856
6335 O1 61.92 22.969 13.1474 O.2 0 **** -0.428
6336 O2 62.4272 23.9187 11.2783 O.2 0 **** -0.428
6337 O3 57.7299 21.211 11.1166 O.2 0 **** -0.428
6338 O4 59.1553 22.4769 12.1198 O.2 0 **** -0.428
6339 H 61.1452 20.8573 13.019 H 0 **** 0.053
6340 H 61.7882 19.7482 11.8309 H 0 **** 0.053
6341 H 63.0704 21.9617 9.60877 H 0 **** 0.053
6342 H 61.441 22.544 9.33982 H 0 **** 0.053
6343 C1 60.3174 20.2303 8.75767 C.3 0 **** 0.268
6344 C2 59.4741 19.1494 10.8614 C.3 0 **** 0.268
6345 N1 59.4205 17.9123 8.74618 N.2 0 **** 0.856
6346 N2 59.6788 19.1 9.42594 N.2 0 **** -0.374
6347 N3 61.6914 20.4325 9.23848 N.2 0 **** -0.374
6348 N4 62.6595 19.4387 9.1217 N.2 0 **** 0.856
6349 O1 59.5667 17.9176 7.54481 O.2 0 **** -0.428
6350 O2 59.0595 16.9679 9.41388 O.2 0 **** -0.428
6351 O3 63.7568 19.6756 9.5756 O.2 0 **** -0.428
6352 O4 62.3313 18.4097 8.57242 O.2 0 **** -0.428
6353 H 60.3414 20.0293 7.67323 H 0 **** 0.053
6354 H 59.6984 21.1385 8.86134 H 0 **** 0.053
6355 H 58.4163 18.9249 11.0834 H 0 **** 0.053
6356 H 60.0457 18.3426 11.3524 H 0 **** 0.053
6357 C1 65.0879 15.7537 17.9594 C.3 0 **** 0.268
6358 C2 65.9312 16.8346 15.8557 C.3 0 **** 0.268
6359 N1 65.9847 18.0717 17.9709 N.2 0 **** 0.856
6360 N2 65.7264 16.884 17.2911 N.2 0 **** -0.374
6361 N3 63.7138 15.5515 17.4786 N.2 0 **** -0.374
6362 N4 62.7458 16.5453 17.5953 N.2 0 **** 0.856
6363 O1 65.8386 18.0663 19.1722 O.2 0 **** -0.428
6364 O2 66.3458 19.016 17.3032 O.2 0 **** -0.428
6365 O3 61.6485 16.3083 17.1414 O.2 0 **** -0.428
6366 O4 63.0739 17.5743 18.1446 O.2 0 **** -0.428
6367 H 65.0638 15.9546 19.0438 H 0 **** 0.053
6368 H 65.7068 14.8455 17.8557 H 0 **** 0.053
6369 H 66.989 17.059 15.6336 H 0 **** 0.053
6370 H 65.3596 17.6413 15.3646 H 0 **** 0.053
6371 C1 64.236 15.3276 14.7825 C.3 0 **** 0.268
6372 C2 63.3927 14.2467 16.8862 C.3 0 **** 0.268
6373 N1 63.3392 13.0096 14.771 N.2 0 **** 0.856
6374 N2 63.5975 14.1973 15.4507 N.2 0 **** -0.374
6375 N3 65.61 15.5298 15.2633 N.2 0 **** -0.374
6376 N4 66.5781 14.536 15.1465 N.2 0 **** 0.856
6377 O1 63.4853 13.015 13.5696 O.2 0 **** -0.428
6378 O2 62.9781 12.0653 15.4387 O.2 0 **** -0.428
6379 O3 67.6754 14.773 15.6004 O.2 0 **** -0.428
6380 O4 66.2499 13.507 14.5972 O.2 0 **** -0.428
6381 H 64.26 15.1267 13.698 H 0 **** 0.053
6382 H 63.617 16.2358 14.8861 H 0 **** 0.053
6383 H 62.3349 14.0223 17.1083 H 0 **** 0.053
6384 H 63.9643 13.4399 17.3772 H 0 **** 0.053
6385 C1 44.069 30.4617 5.90975 C.3 0 **** 0.268
6386 C2 44.9123 31.5426 3.80604 C.3 0 **** 0.268
6387 N1 44.9658 32.7797 5.92124 N.2 0 **** 0.856
6388 N2 44.7075 31.592 5.24148 N.2 0 **** -0.374
6389 N3 42.695 30.2595 5.42894 N.2 0 **** -0.374
6390 N4 41.7269 31.2533 5.54572 N.2 0 **** 0.856
6391 O1 44.8197 32.7743 7.12261 O.2 0 **** -0.428
6392 O2 45.3269 33.724 5.25354 O.2 0 **** -0.428
6393 O3 40.6296 31.0163 5.09182 O.2 0 **** -0.428
6394 O4 42.055 32.2823 6.095 O.2 0 **** -0.428
6395 H 44.045 30.6626 6.99418 H 0 **** 0.053
6396 H 44.688 29.5535 5.80608 H 0 **** 0.053
6397 H 45.9701 31.767 3.58397 H 0 **** 0.053
6398 H 44.3407 32.3494 3.31501 H 0 **** 0.053
6399 C1 43.2171 30.0356 2.73287 C.3 0 **** 0.268
6400 C2 42.3738 28.9547 4.83657 C.3 0 **** 0.268
6401 N1 42.3203 27.7176 2.72137 N.2 0 **** 0.856
6402 N2 42.5786 28.9053 3.40114 N.2 0 **** -0.374
6403 N3 44.5912 30.2378 3.21367 N.2 0 **** -0.374
6404 N4 45.5592 29.244 3.0969 N.2 0 **** 0.856
6405 O1 42.4664 27.723 1.52 O.2 0 **** -0.428
6406 O2 41.9592 26.7733 3.38907 O.2 0 **** -0.428
6407 O3 46.6565 29.481 3.5508 O.2 0 **** -0.428
6408 O4 45.2311 28.215 2.54761 O.2 0 **** -0.428
6409 H 43.2412 29.8347 1.64843 H 0 **** 0.053
6410 H 42.5982 30.9438 2.83654 H 0 **** 0.053
6411 H 41.316 28.7303 5.05864 H 0 **** 0.053
6412 H 42.9454 28.148 5.3276 H 0 **** 0.053
6413 C1 47.9876 25.559 11.9346 C.3 0 **** 0.268
6414 C2 48.8309 26.6399 9.83085 C.3 0 **** 0.268
6415 N1 48.8844 27.877 11.946 N.2 0 **** 0.856
6416 N2 48.6261 26.6893 11.2663 N.2 0 **** -0.374
6417 N3 46.6136 25.3568 11.4537 N.2 0 **** -0.374
6418 N4 45.6455 26.3506 11.5705 N.2 0 **** 0.856
6419 O1 48.7383 27.8717 13.1474 O.2 0 **** -0.428
6420 O2 49.2455 28.8214 11.2783 O.2 0 **** -0.428
6421 O3 44.5482 26.1137 11.1166 O.2 0 **** -0.428
6422 O4 45.9737 27.3796 12.1198 O.2 0 **** -0.428
6423 H 47.9636 25.7599 13.019 H 0 **** 0.053
6424 H 48.6066 24.6508 11.8309 H 0 **** 0.053
6425 H 49.8887 26.8644 9.60877 H 0 **** 0.053
6426 H 48.2593 27.4467 9.33982 H 0 **** 0.053
6427 C1 47.1357 25.133 8.75767 C.3 0 **** 0.268
6428 C2 46.2924 24.0521 10.8614 C.3 0 **** 0.268
6429 N1 46.2389 22.8149 8.74618 N.2 0 **** 0.856
6430 N2 46.4972 24.0026 9.42594 N.2 0 **** -0.374
6431 N3 48.5098 25.3352 9.23848 N.2 0 **** -0.374
6432 N4 49.4778 24.3414 9.1217 N.2 0 **** 0.856
6433 O1 46.385 22.8203 7.54481 O.2 0 **** -0.428
6434 O2 45.8778 21.8706 9.41388 O.2 0 **** -0.428
6435 O3 50.5751 24.5783 9.5756 O.2 0 **** -0.428
6436 O4 49.1497 23.3123 8.57242 O.2 0 **** -0.428
6437 H 47.1598 24.932 7.67323 H 0 **** 0.053
6438 H 46.5168 26.0411 8.86134 H 0 **** 0.053
6439 H 45.2346 23.8276 11.0834 H 0 **** 0.053
6440 H 46.864 23.2453 11.3524 H 0 **** 0.053
6441 C1 51.9062 20.6563 17.9594 C.3 0 **** 0.268
6442 C2 52.7495 21.7372 15.8557 C.3 0 **** 0.268
6443 N1 52.8031 22.9743 17.9709 N.2 0 **** 0.856
6444 N2 52.5448 21.7867 17.2911 N.2 0 **** -0.374
6445 N3 50.5322 20.4541 17.4786 N.2 0 **** -0.374
6446 N4 49.5641 21.4479 17.5953 N.2 0 **** 0.856
6447 O1 52.6569 22.969 19.1722 O.2 0 **** -0.428
6448 O2 53.1641 23.9187 17.3032 O.2 0 **** -0.428
6449 O3 48.4668 21.211 17.1414 O.2 0 **** -0.428
6450 O4 49.8923 22.4769 18.1446 O.2 0 **** -0.428
6451 H 51.8822 20.8573 19.0438 H 0 **** 0.053
6452 H 52.5252 19.7482 17.8557 H 0 **** 0.053
6453 H 53.8073 21.9617 15.6336 H 0 **** 0.053
6454 H 52.1779 22.544 15.3646 H 0 **** 0.053
6455 C1 51.0543 20.2303 14.7825 C.3 0 **** 0.268
6456 C2 50.211 19.1494 16.8862 C.3 0 **** 0.268
6457 N1 50.1575 17.9123 14.771 N.2 0 **** 0.856
6458 N2 50.4158 19.1 15.4507 N.2 0 **** -0.374
6459 N3 52.4284 20.4325 15.2633 N.2 0 **** -0.374
6460 N4 53.3964 19.4387 15.1465 N.2 0 **** 0.856
6461 O1 50.3036 17.9176 13.5696 O.2 0 **** -0.428
6462 O2 49.7965 16.9679 15.4387 O.2 0 **** -0.428
6463 O3 54.4937 19.6756 15.6004 O.2 0 **** -0.428
6464 O4 53.0683 18.4097 14.5972 O.2 0 **** -0.428
6465 H 51.0784 20.0293 13.698 H 0 **** 0.053
6466 H 50.4354 21.1385 14.8861 H 0 **** 0.053
6467 H 49.1532 18.9249 17.1083 H 0 **** 0.053
6468 H 50.7826 18.3426 17.3772 H 0 **** 0.053
6469 C1 55.8248 15.7537 23.9842 C.3 0 **** 0.268
6470 C2 56.6681 16.8346 21.8805 C.3 0 **** 0.268
6471 N1 56.7217 18.0717 23.9957 N.2 0 **** 0.856
6472 N2 56.4634 16.884 23.3159 N.2 0 **** -0.374
6473 N3 54.4508 15.5515 23.5034 N.2 0 **** -0.374
6474 N4 53.4827 16.5453 23.6201 N.2 0 **** 0.856
6475 O1 56.5755 18.0663 25.197 O.2 0 **** -0.428
6476 O2 57.0827 19.016 23.328 O.2 0 **** -0.428
6477 O3 52.3854 16.3083 23.1662 O.2 0 **** -0.428
6478 O4 53.8109 17.5743 24.1694 O.2 0 **** -0.428
6479 H 55.8008 15.9546 25.0686 H 0 **** 0.053
6480 H 56.4438 14.8455 23.8805 H 0 **** 0.053
6481 H 57.7259 17.059 21.6584 H 0 **** 0.053
6482 H 56.0965 17.6413 21.3894 H 0 **** 0.053
6483 C1 54.9729 15.3276 20.8073 C.3 0 **** 0.268
6484 C2 54.1296 14.2467 22.911 C.3 0 **** 0.268
6485 N1 54.0761 13.0096 20.7958 N.2 0 **** 0.856
6486 N2 54.3344 14.1973 21.4756 N.2 0 **** -0.374
6487 N3 56.347 15.5298 21.2881 N.2 0 **** -0.374
6488 N4 57.315 14.536 21.1713 N.2 0 **** 0.856
6489 O1 54.2222 13.015 19.5944 O.2 0 **** -0.428
6490 O2 53.7151 12.0653 21.4635 O.2 0 **** -0.428
6491 O3 58.4123 14.773 21.6252 O.2 0 **** -0.428
6492 O4 56.9869 13.507 20.622 O.2 0 **** -0.428
6493 H 54.997 15.1267 19.7228 H 0 **** 0.053
6494 H 54.354 16.2358 20.911 H 0 **** 0.053
6495 H 53.0718 14.0223 23.1331 H 0 **** 0.053
6496 H 54.7012 13.4399 23.402 H 0 **** 0.053
6497 C1 59.7435 10.851 30.009 C.3 0 **** 0.268
6498 C2 60.5867 11.9319 27.9053 C.3 0 **** 0.268
6499 N1 60.6403 13.169 30.0205 N.2 0 **** 0.856
6500 N2 60.382 11.9813 29.3407 N.2 0 **** -0.374
6501 N3 58.3694 10.6488 29.5282 N.2 0 **** -0.374
6502 N4 57.4014 11.6426 29.6449 N.2 0 **** 0.856
6503 O1 60.4941 13.1636 31.2218 O.2 0 **** -0.428
6504 O2 61.0013 14.1133 29.3528 O.2 0 **** -0.428
6505 O3 56.304 11.4056 29.191 O.2 0 **** -0.428
6506 O4 57.7295 12.6716 30.1942 O.2 0 **** -0.428
6507 H 59.7194 11.0519 31.0934 H 0 **** 0.053
6508 H 60.3624 9.94281 29.9053 H 0 **** 0.053
6509 H 61.6445 12.1563 27.6832 H 0 **** 0.053
6510 H 60.0151 12.7387 27.4142 H 0 **** 0.053
6511 C1 58.8915 10.4249 26.8321 C.3 0 **** 0.268
6512 C2 58.0482 9.34403 28.9358 C.3 0 **** 0.268
6513 N1 57.9947 8.10692 26.8206 N.2 0 **** 0.856
6514 N2 58.253 9.29461 27.5004 N.2 0 **** -0.374
6515 N3 60.2656 10.6271 27.3129 N.2 0 **** -0.374
6516 N4 61.2336 9.63333 27.1961 N.2 0 **** 0.856
6517 O1 58.1409 8.11228 25.6192 O.2 0 **** -0.428
6518 O2 57.6337 7.16258 27.4883 O.2 0 **** -0.428
6519 O3 62.3309 9.87028 27.65 O.2 0 **** -0.428
6520 O4 60.9055 8.60432 26.6468 O.2 0 **** -0.428
6521 H 58.9156 10.224 25.7477 H 0 **** 0.053
6522 H 58.2726 11.3331 26.9358 H 0 **** 0.053
6523 H 56.9904 9.11959 29.1579 H 0 **** 0.053
6524 H 58.6198 8.53725 29.4268 H 0 **** 0.053
6525 C1 30.8874 35.3644 5.90975 C.3 0 **** 0.268
6526 C2 31.7306 36.4453 3.80604 C.3 0 **** 0.268
6527 N1 31.7842 37.6824 5.92124 N.2 0 **** 0.856
6528 N2 31.5259 36.4947 5.24148 N.2 0 **** -0.374
6529 N3 29.5133 35.1622 5.42894 N.2 0 **** -0.374
6530 N4 28.5453 36.156 5.54572 N.2 0 **** 0.856
6531 O1 31.638 37.677 7.12261 O.2 0 **** -0.428
6532 O2 32.1452 38.6267 5.25354 O.2 0 **** -0.428
6533 O3 27.4479 35.919 5.09182 O.2 0 **** -0.428
6534 O4 28.8734 37.185 6.095 O.2 0 **** -0.428
6535 H 30.8633 35.5653 6.99418 H 0 **** 0.053
6536 H 31.5063 34.4562 5.80608 H 0 **** 0.053
6537 H 32.7884 36.6697 3.58397 H 0 **** 0.053
6538 H 31.159 37.252 3.31501 H 0 **** 0.053
6539 C1 30.0354 34.9383 2.73287 C.3 0 **** 0.268
6540 C2 29.1921 33.8574 4.83657 C.3 0 **** 0.268
6541 N1 29.1386 32.6203 2.72137 N.2 0 **** 0.856
6542 N2 29.3969 33.808 3.40114 N.2 0 **** -0.374
6543 N3 31.4095 35.1405 3.21367 N.2 0 **** -0.374
6544 N4 32.3775 34.1467 3.0969 N.2 0 **** 0.856
6545 O1 29.2848 32.6257 1.52 O.2 0 **** -0.428
6546 O2 28.7776 31.676 3.38907 O.2 0 **** -0.428
6547 O3 33.4749 34.3837 3.5508 O.2 0 **** -0.428
6548 O4 32.0494 33.1177 2.54761 O.2 0 **** -0.428
6549 H 30.0595 34.7374 1.64843 H 0 **** 0.053
6550 H 29.4165 35.8465 2.83654 H 0 **** 0.053
6551 H 28.1343 33.633 5.05864 H 0 **** 0.053
6552 H 29.7637 33.0506 5.3276 H 0 **** 0.053
6553 C1 34.806 30.4617 11.9346 C.3 0 **** 0.268
6554 C2 35.6493 31.5426 9.83085 C.3 0 **** 0.268
6555 N1 35.7028 32.7797 11.946 N.2 0 **** 0.856
6556 N2 35.4445 31.592 11.2663 N.2 0 **** -0.374
6557 N3 33.4319 30.2595 11.4537 N.2 0 **** -0.374
6558 N4 32.4639 31.2533 11.5705 N.2 0 **** 0.856
6559 O1 35.5566 32.7743 13.1474 O.2 0 **** -0.428
6560 O2 36.0638 33.724 11.2783 O.2 0 **** -0.428
6561 O3 31.3665 31.0163 11.1166 O.2 0 **** -0.428
6562 O4 32.792 32.2823 12.1198 O.2 0 **** -0.428
6563 H 34.7819 30.6626 13.019 H 0 **** 0.053
6564 H 35.4249 29.5535 11.8309 H 0 **** 0.053
6565 H 36.707 31.767 9.60877 H 0 **** 0.053
6566 H 35.0776 32.3494 9.33982 H 0 **** 0.053
6567 C1 33.954 30.0356 8.75767 C.3 0 **** 0.268
6568 C2 33.1107 28.9547 10.8614 C.3 0 **** 0.268
6569 N1 33.0572 27.7176 8.74618 N.2 0 **** 0.856
6570 N2 33.3155 28.9053 9.42594 N.2 0 **** -0.374
6571 N3 35.3281 30.2378 9.23848 N.2 0 **** -0.374
6572 N4 36.2961 29.244 9.1217 N.2 0 **** 0.856
6573 O1 33.2034 27.723 7.54481 O.2 0 **** -0.428
6574 O2 32.6962 26.7733 9.41388 O.2 0 **** -0.428
6575 O3 37.3935 29.481 9.5756 O.2 0 **** -0.428
6576 O4 35.968 28.215 8.57242 O.2 0 **** -0.428
6577 H 33.9781 29.8347 7.67323 H 0 **** 0.053
6578 H 33.3351 30.9438 8.86134 H 0 **** 0.053
6579 H 32.053 28.7303 11.0834 H 0 **** 0.053
6580 H 33.6824 28.148 11.3524 H 0 **** 0.053
6581 C1 38.7246 25.559 17.9594 C.3 0 **** 0.268
6582 C2 39.5679 26.6399 15.8557 C.3 0 **** 0.268
6583 N1 39.6214 27.877 17.9709 N.2 0 **** 0.856
6584 N2 39.3631 26.6893 17.2911 N.2 0 **** -0.374
6585 N3 37.3505 25.3568 17.4786 N.2 0 **** -0.374
6586 N4 36.3825 26.3506 17.5953 N.2 0 **** 0.856
6587 O1 39.4752 27.8717 19.1722 O.2 0 **** -0.428
6588 O2 39.9824 28.8214 17.3032 O.2 0 **** -0.428
6589 O3 35.2851 26.1137 17.1414 O.2 0 **** -0.428
6590 O4 36.7106 27.3796 18.1446 O.2 0 **** -0.428
6591 H 38.7005 25.7599 19.0438 H 0 **** 0.053
6592 H 39.3435 24.6508 17.8557 H 0 **** 0.053
6593 H 40.6257 26.8644 15.6336 H 0 **** 0.053
6594 H 38.9963 27.4467 15.3646 H 0 **** 0.053
6595 C1 37.8726 25.133 14.7825 C.3 0 **** 0.268
6596 C2 37.0294 24.0521 16.8862 C.3 0 **** 0.268
6597 N1 36.9758 22.8149 14.771 N.2 0 **** 0.856
6598 N2 37.2341 24.0026 15.4507 N.2 0 **** -0.374
6599 N3 39.2467 25.3352 15.2633 N.2 0 **** -0.374
6600 N4 40.2147 24.3414 15.1465 N.2 0 **** 0.856
6601 O1 37.122 22.8203 13.5696 O.2 0 **** -0.428
6602 O2 36.6148 21.8706 15.4387 O.2 0 **** -0.428
6603 O3 41.3121 24.5783 15.6004 O.2 0 **** -0.428
6604 O4 39.8866 23.3123 14.5972 O.2 0 **** -0.428
6605 H 37.8967 24.932 13.698 H 0 **** 0.053
6606 H 37.2537 26.0411 14.8861 H 0 **** 0.053
6607 H 35.9716 23.8276 17.1083 H 0 **** 0.053
6608 H 37.601 23.2453 17.3772 H 0 **** 0.053
6609 C1 42.6432 20.6563 23.9842 C.3 0 **** 0.268
6610 C2 43.4865 21.7372 21.8805 C.3 0 **** 0.268
6611 N1 43.54 22.9743 23.9957 N.2 0 **** 0.856
6612 N2 43.2817 21.7867 23.3159 N.2 0 **** -0.374
6613 N3 41.2691 20.4541 23.5034 N.2 0 **** -0.374
6614 N4 40.3011 21.4479 23.6201 N.2 0 **** 0.856
6615 O1 43.3938 22.969 25.197 O.2 0 **** -0.428
6616 O2 43.901 23.9187 23.328 O.2 0 **** -0.428
6617 O3 39.2038 21.211 23.1662 O.2 0 **** -0.428
6618 O4 40.6292 22.4769 24.1694 O.2 0 **** -0.428
6619 H 42.6191 20.8573 25.0686 H 0 **** 0.053
6620 H 43.2621 19.7482 23.8805 H 0 **** 0.053
6621 H 44.5443 21.9617 21.6584 H 0 **** 0.053
6622 H 42.9149 22.544 21.3894 H 0 **** 0.053
6623 C1 41.7913 20.2303 20.8073 C.3 0 **** 0.268
6624 C2 40.948 19.1494 22.911 C.3 0 **** 0.268
6625 N1 40.8944 17.9123 20.7958 N.2 0 **** 0.856
6626 N2 41.1527 19.1 21.4756 N.2 0 **** -0.374
6627 N3 43.1653 20.4325 21.2881 N.2 0 **** -0.374
6628 N4 44.1333 19.4387 21.1713 N.2 0 **** 0.856
6629 O1 41.0406 17.9176 19.5944 O.2 0 **** -0.428
6630 O2 40.5334 16.9679 21.4635 O.2 0 **** -0.428
6631 O3 45.2307 19.6756 21.6252 O.2 0 **** -0.428
6632 O4 43.8052 18.4097 20.622 O.2 0 **** -0.428
6633 H 41.8153 20.0293 19.7228 H 0 **** 0.053
6634 H 41.1723 21.1385 20.911 H 0 **** 0.053
6635 H 39.8902 18.9249 23.1331 H 0 **** 0.053
6636 H 41.5196 18.3426 23.402 H 0 **** 0.053
6637 C1 46.5618 15.7537 30.009 C.3 0 **** 0.268
6638 C2 47.4051 16.8346 27.9053 C.3 0 **** 0.268
6639 N1 47.4586 18.0717 30.0205 N.2 0 **** 0.856
6640 N2 47.2003 16.884 29.3407 N.2 0 **** -0.374
6641 N3 45.1877 15.5515 29.5282 N.2 0 **** -0.374
6642 N4 44.2197 16.5453 29.6449 N.2 0 **** 0.856
6643 O1 47.3125 18.0663 31.2218 O.2 0 **** -0.428
6644 O2 47.8196 19.016 29.3528 O.2 0 **** -0.428
6645 O3 43.1224 16.3083 29.191 O.2 0 **** -0.428
6646 O4 44.5478 17.5743 30.1942 O.2 0 **** -0.428
6647 H 46.5377 15.9546 31.0934 H 0 **** 0.053
6648 H 47.1807 14.8455 29.9053 H 0 **** 0.053
6649 H 48.4629 17.059 27.6832 H 0 **** 0.053
6650 H 46.8335 17.6413 27.4142 H 0 **** 0.053
6651 C1 45.7099 15.3276 26.8321 C.3 0 **** 0.268
6652 C2 44.8666 14.2467 28.9358 C.3 0 **** 0.268
6653 N1 44.813 13.0096 26.8206 N.2 0 **** 0.856
6654 N2 45.0713 14.1973 27.5004 N.2 0 **** -0.374
6655 N3 47.0839 15.5298 27.3129 N.2 0 **** -0.374
6656 N4 48.052 14.536 27.1961 N.2 0 **** 0.856
6657 O1 44.9592 13.015 25.6192 O.2 0 **** -0.428
6658 O2 44.452 12.0653 27.4883 O.2 0 **** -0.428
6659 O3 49.1493 14.773 27.65 O.2 0 **** -0.428
6660 O4 47.7238 13.507 26.6468 O.2 0 **** -0.428
6661 H 45.7339 15.1267 25.7477 H 0 **** 0.053
6662 H 45.0909 16.2358 26.9358 H 0 **** 0.053
6663 H 43.8088 14.0223 29.1579 H 0 **** 0.053
6664 H 45.4382 13.4399 29.4268 H 0 **** 0.053
6665 C1 17.7057 1.027 5.90975 C.3 0 **** 0.268
6666 C2 18.549 2.1079 3.80604 C.3 0 **** 0.268
6667 N1 18.6025 3.3451 5.92124 N.2 0 **** 0.856
6668 N2 18.3442 2.1574 5.24148 N.2 0 **** -0.374
6669 N3 16.3316 0.8248 5.42894 N.2 0 **** -0.374
6670 N4 15.3636 1.8186 5.54572 N.2 0 **** 0.856
6671 O1 18.4564 3.3397 7.12261 O.2 0 **** -0.428
6672 O2 18.9636 4.2894 5.25354 O.2 0 **** -0.428
6673 O3 14.2663 1.5817 5.09182 O.2 0 **** -0.428
6674 O4 15.6917 2.8477 6.095 O.2 0 **** -0.428
6675 H 17.6816 1.228 6.99418 H 0 **** 0.053
6676 H 18.3246 0.1189 5.80608 H 0 **** 0.053
6677 H 19.6068 2.3324 3.58397 H 0 **** 0.053
6678 H 17.9774 2.9147 3.31501 H 0 **** 0.053
6679 C1 16.8538 0.601 2.73287 C.3 0 **** 0.268
6680 C2 16.0105 -0.4799 4.83657 C.3 0 **** 0.268
6681 N1 15.9569 -1.717 2.72137 N.2 0 **** 0.856
6682 N2 16.2152 -0.5293 3.40114 N.2 0 **** -0.374
6683 N3 18.2278 0.8032 3.21367 N.2 0 **** -0.374
6684 N4 19.1959 -0.1906 3.0969 N.2 0 **** 0.856
6685 O1 16.1031 -1.7117 1.52 O.2 0 **** -0.428
6686 O2 15.5959 -2.6614 3.38907 O.2 0 **** -0.428
6687 O3 20.2932 0.0463 3.5508 O.2 0 **** -0.428
6688 O4 18.8677 -1.2196 2.54761 O.2 0 **** -0.428
6689 H 16.8778 0.4001 1.64843 H 0 **** 0.053
6690 H 16.2348 1.5092 2.83654 H 0 **** 0.053
6691 H 14.9527 -0.7044 5.05864 H 0 **** 0.053
6692 H 16.5821 -1.2867 5.3276 H 0 **** 0.053
6693 C1 21.6243 35.3644 11.9346 C.3 0 **** 0.268
6694 C2 22.4676 36.4453 9.83085 C.3 0 **** 0.268
6695 N1 22.5211 37.6824 11.946 N.2 0 **** 0.856
6696 N2 22.2628 36.4947 11.2663 N.2 0 **** -0.374
6697 N3 20.2502 35.1622 11.4537 N.2 0 **** -0.374
6698 N4 19.2822 36.156 11.5705 N.2 0 **** 0.856
6699 O1 22.375 37.677 13.1474 O.2 0 **** -0.428
6700 O2 22.8822 38.6267 11.2783 O.2 0 **** -0.428
6701 O3 18.1849 35.919 11.1166 O.2 0 **** -0.428
6702 O4 19.6103 37.185 12.1198 O.2 0 **** -0.428
6703 H 21.6002 35.5653 13.019 H 0 **** 0.053
6704 H 22.2432 34.4562 11.8309 H 0 **** 0.053
6705 H 23.5254 36.6697 9.60877 H 0 **** 0.053
6706 H 21.896 37.252 9.33982 H 0 **** 0.053
6707 C1 20.7724 34.9383 8.75767 C.3 0 **** 0.268
6708 C2 19.9291 33.8574 10.8614 C.3 0 **** 0.268
6709 N1 19.8756 32.6203 8.74618 N.2 0 **** 0.856
6710 N2 20.1339 33.808 9.42594 N.2 0 **** -0.374
6711 N3 22.1464 35.1405 9.23848 N.2 0 **** -0.374
6712 N4 23.1145 34.1467 9.1217 N.2 0 **** 0.856
6713 O1 20.0217 32.6257 7.54481 O.2 0 **** -0.428
6714 O2 19.5145 31.676 9.41388 O.2 0 **** -0.428
6715 O3 24.2118 34.3837 9.5756 O.2 0 **** -0.428
6716 O4 22.7863 33.1177 8.57242 O.2 0 **** -0.428
6717 H 20.7964 34.7374 7.67323 H 0 **** 0.053
6718 H 20.1534 35.8465 8.86134 H 0 **** 0.053
6719 H 18.8713 33.633 11.0834 H 0 **** 0.053
6720 H 20.5007 33.0506 11.3524 H 0 **** 0.053
6721 C1 25.5429 30.4617 17.9594 C.3 0 **** 0.268
6722 C2 26.3862 31.5426 15.8557 C.3 0 **** 0.268
6723 N1 26.4397 32.7797 17.9709 N.2 0 **** 0.856
6724 N2 26.1814 31.592 17.2911 N.2 0 **** -0.374
6725 N3 24.1688 30.2595 17.4786 N.2 0 **** -0.374
6726 N4 23.2008 31.2533 17.5953 N.2 0 **** 0.856
6727 O1 26.2936 32.7743 19.1722 O.2 0 **** -0.428
6728 O2 26.8008 33.724 17.3032 O.2 0 **** -0.428
6729 O3 22.1035 31.0163 17.1414 O.2 0 **** -0.428
6730 O4 23.5289 32.2823 18.1446 O.2 0 **** -0.428
6731 H 25.5188 30.6626 19.0438 H 0 **** 0.053
6732 H 26.1618 29.5535 17.8557 H 0 **** 0.053
6733 H 27.444 31.767 15.6336 H 0 **** 0.053
6734 H 25.8146 32.3494 15.3646 H 0 **** 0.053
6735 C1 24.691 30.0356 14.7825 C.3 0 **** 0.268
6736 C2 23.8477 28.9547 16.8862 C.3 0 **** 0.268
6737 N1 23.7942 27.7176 14.771 N.2 0 **** 0.856
6738 N2 24.0525 28.9053 15.4507 N.2 0 **** -0.374
6739 N3 26.065 30.2378 15.2633 N.2 0 **** -0.374
6740 N4 27.0331 29.244 15.1465 N.2 0 **** 0.856
6741 O1 23.9403 27.723 13.5696 O.2 0 **** -0.428
6742 O2 23.4331 26.7733 15.4387 O.2 0 **** -0.428
6743 O3 28.1304 29.481 15.6004 O.2 0 **** -0.428
6744 O4 26.705 28.215 14.5972 O.2 0 **** -0.428
6745 H 24.715 29.8347 13.698 H 0 **** 0.053
6746 H 24.0721 30.9438 14.8861 H 0 **** 0.053
6747 H 22.7899 28.7303 17.1083 H 0 **** 0.053
6748 H 24.4193 28.148 17.3772 H 0 **** 0.053
6749 C1 29.4615 25.559 23.9842 C.3 0 **** 0.268
6750 C2 30.3048 26.6399 21.8805 C.3 0 **** 0.268
6751 N1 30.3583 27.877 23.9957 N.2 0 **** 0.856
6752 N2 30.1 26.6893 23.3159 N.2 0 **** -0.374
6753 N3 28.0874 25.3568 23.5034 N.2 0 **** -0.374
6754 N4 27.1194 26.3506 23.6201 N.2 0 **** 0.856
6755 O1 30.2122 27.8717 25.197 O.2 0 **** -0.428
6756 O2 30.7194 28.8214 23.328 O.2 0 **** -0.428
6757 O3 26.0221 26.1137 23.1662 O.2 0 **** -0.428
6758 O4 27.4475 27.3796 24.1694 O.2 0 **** -0.428
6759 H 29.4374 25.7599 25.0686 H 0 **** 0.053
6760 H 30.0804 24.6508 23.8805 H 0 **** 0.053
6761 H 31.3626 26.8644 21.6584 H 0 **** 0.053
6762 H 29.7332 27.4467 21.3894 H 0 **** 0.053
6763 C1 28.6096 25.133 20.8073 C.3 0 **** 0.268
6764 C2 27.7663 24.0521 22.911 C.3 0 **** 0.268
6765 N1 27.7128 22.8149 20.7958 N.2 0 **** 0.856
6766 N2 27.9711 24.0026 21.4756 N.2 0 **** -0.374
6767 N3 29.9837 25.3352 21.2881 N.2 0 **** -0.374
6768 N4 30.9517 24.3414 21.1713 N.2 0 **** 0.856
6769 O1 27.8589 22.8203 19.5944 O.2 0 **** -0.428
6770 O2 27.3517 21.8706 21.4635 O.2 0 **** -0.428
6771 O3 32.049 24.5783 21.6252 O.2 0 **** -0.428
6772 O4 30.6236 23.3123 20.622 O.2 0 **** -0.428
6773 H 28.6337 24.932 19.7228 H 0 **** 0.053
6774 H 27.9907 26.0411 20.911 H 0 **** 0.053
6775 H 26.7085 23.8276 23.1331 H 0 **** 0.053
6776 H 28.3379 23.2453 23.402 H 0 **** 0.053
6777 C1 33.3801 20.6563 30.009 C.3 0 **** 0.268
6778 C2 34.2234 21.7372 27.9053 C.3 0 **** 0.268
6779 N1 34.2769 22.9743 30.0205 N.2 0 **** 0.856
6780 N2 34.0186 21.7867 29.3407 N.2 0 **** -0.374
6781 N3 32.0061 20.4541 29.5282 N.2 0 **** -0.374
6782 N4 31.038 21.4479 29.6449 N.2 0 **** 0.856
6783 O1 34.1308 22.969 31.2218 O.2 0 **** -0.428
6784 O2 34.638 23.9187 29.3528 O.2 0 **** -0.428
6785 O3 29.9407 21.211 29.191 O.2 0 **** -0.428
6786 O4 31.3661 22.4769 30.1942 O.2 0 **** -0.428
6787 H 33.3561 20.8573 31.0934 H 0 **** 0.053
6788 H 33.9991 19.7482 29.9053 H 0 **** 0.053
6789 H 35.2812 21.9617 27.6832 H 0 **** 0.053
6790 H 33.6518 22.544 27.4142 H 0 **** 0.053
6791 C1 32.5282 20.2303 26.8321 C.3 0 **** 0.268
6792 C2 31.6849 19.1494 28.9358 C.3 0 **** 0.268
6793 N1 31.6314 17.9123 26.8206 N.2 0 **** 0.856
6794 N2 31.8897 19.1 27.5004 N.2 0 **** -0.374
6795 N3 33.9023 20.4325 27.3129 N.2 0 **** -0.374
6796 N4 34.8703 19.4387 27.1961 N.2 0 **** 0.856
6797 O1 31.7775 17.9176 25.6192 O.2 0 **** -0.428
6798 O2 31.2703 16.9679 27.4883 O.2 0 **** -0.428
6799 O3 35.9676 19.6756 27.65 O.2 0 **** -0.428
6800 O4 34.5422 18.4097 26.6468 O.2 0 **** -0.428
6801 H 32.5523 20.0293 25.7477 H 0 **** 0.053
6802 H 31.9093 21.1385 26.9358 H 0 **** 0.053
6803 H 30.6271 18.9249 29.1579 H 0 **** 0.053
6804 H 32.2565 18.3426 29.4268 H 0 **** 0.053
6805 C1 8.44264 1.027 11.9346 C.3 0 **** 0.268
6806 C2 9.28593 2.1079 9.83085 C.3 0 **** 0.268
6807 N1 9.33946 3.3451 11.946 N.2 0 **** 0.856
6808 N2 9.08116 2.1574 11.2663 N.2 0 **** -0.374
6809 N3 7.06857 0.8248 11.4537 N.2 0 **** -0.374
6810 N4 6.10054 1.8186 11.5705 N.2 0 **** 0.856
6811 O1 9.19331 3.3397 13.1474 O.2 0 **** -0.428
6812 O2 9.7005 4.2894 11.2783 O.2 0 **** -0.428
6813 O3 5.00321 1.5817 11.1166 O.2 0 **** -0.428
6814 O4 6.42866 2.8477 12.1198 O.2 0 **** -0.428
6815 H 8.41857 1.228 13.019 H 0 **** 0.053
6816 H 9.06157 0.1189 11.8309 H 0 **** 0.053
6817 H 10.3437 2.3324 9.60877 H 0 **** 0.053
6818 H 8.71432 2.9147 9.33982 H 0 **** 0.053
6819 C1 7.59071 0.601 8.75767 C.3 0 **** 0.268
6820 C2 6.74742 -0.4799 10.8614 C.3 0 **** 0.268
6821 N1 6.69389 -1.717 8.74618 N.2 0 **** 0.856
6822 N2 6.95219 -0.5293 9.42594 N.2 0 **** -0.374
6823 N3 8.96478 0.8032 9.23848 N.2 0 **** -0.374
6824 N4 9.93281 -0.1906 9.1217 N.2 0 **** 0.856
6825 O1 6.84004 -1.7117 7.54481 O.2 0 **** -0.428
6826 O2 6.33285 -2.6614 9.41388 O.2 0 **** -0.428
6827 O3 11.0301 0.0463 9.5756 O.2 0 **** -0.428
6828 O4 9.60469 -1.2196 8.57242 O.2 0 **** -0.428
6829 H 7.61478 0.4001 7.67323 H 0 **** 0.053
6830 H 6.97178 1.5092 8.86134 H 0 **** 0.053
6831 H 5.68963 -0.7044 11.0834 H 0 **** 0.053
6832 H 7.31903 -1.2867 11.3524 H 0 **** 0.053
6833 C1 12.3612 35.3644 17.9594 C.3 0 **** 0.268
6834 C2 13.2045 36.4453 15.8557 C.3 0 **** 0.268
6835 N1 13.2581 37.6824 17.9709 N.2 0 **** 0.856
6836 N2 12.9998 36.4947 17.2911 N.2 0 **** -0.374
6837 N3 10.9872 35.1622 17.4786 N.2 0 **** -0.374
6838 N4 10.0192 36.156 17.5953 N.2 0 **** 0.856
6839 O1 13.1119 37.677 19.1722 O.2 0 **** -0.428
6840 O2 13.6191 38.6267 17.3032 O.2 0 **** -0.428
6841 O3 8.92182 35.919 17.1414 O.2 0 **** -0.428
6842 O4 10.3473 37.185 18.1446 O.2 0 **** -0.428
6843 H 12.3372 35.5653 19.0438 H 0 **** 0.053
6844 H 12.9802 34.4562 17.8557 H 0 **** 0.053
6845 H 14.2623 36.6697 15.6336 H 0 **** 0.053
6846 H 12.6329 37.252 15.3646 H 0 **** 0.053
6847 C1 11.5093 34.9383 14.7825 C.3 0 **** 0.268
6848 C2 10.666 33.8574 16.8862 C.3 0 **** 0.268
6849 N1 10.6125 32.6203 14.771 N.2 0 **** 0.856
6850 N2 10.8708 33.808 15.4507 N.2 0 **** -0.374
6851 N3 12.8834 35.1405 15.2633 N.2 0 **** -0.374
6852 N4 13.8514 34.1467 15.1465 N.2 0 **** 0.856
6853 O1 10.7587 32.6257 13.5696 O.2 0 **** -0.428
6854 O2 10.2515 31.676 15.4387 O.2 0 **** -0.428
6855 O3 14.9487 34.3837 15.6004 O.2 0 **** -0.428
6856 O4 13.5233 33.1177 14.5972 O.2 0 **** -0.428
6857 H 11.5334 34.7374 13.698 H 0 **** 0.053
6858 H 10.8904 35.8465 14.8861 H 0 **** 0.053
6859 H 9.60823 33.633 17.1083 H 0 **** 0.053
6860 H 11.2376 33.0506 17.3772 H 0 **** 0.053
6861 C1 16.2799 30.4617 23.9842 C.3 0 **** 0.268
6862 C2 17.1231 31.5426 21.8805 C.3 0 **** 0.268
6863 N1 17.1767 32.7797 23.9957 N.2 0 **** 0.856
6864 N2 16.9184 31.592 23.3159 N.2 0 **** -0.374
6865 N3 14.9058 30.2595 23.5034 N.2 0 **** -0.374
6866 N4 13.9378 31.2533 23.6201 N.2 0 **** 0.856
6867 O1 17.0305 32.7743 25.197 O.2 0 **** -0.428
6868 O2 17.5377 33.724 23.328 O.2 0 **** -0.428
6869 O3 12.8404 31.0163 23.1662 O.2 0 **** -0.428
6870 O4 14.2659 32.2823 24.1694 O.2 0 **** -0.428
6871 H 16.2558 30.6626 25.0686 H 0 **** 0.053
6872 H 16.8988 29.5535 23.8805 H 0 **** 0.053
6873 H 18.1809 31.767 21.6584 H 0 **** 0.053
6874 H 16.5515 32.3494 21.3894 H 0 **** 0.053
6875 C1 15.4279 30.0356 20.8073 C.3 0 **** 0.268
6876 C2 14.5846 28.9547 22.911 C.3 0 **** 0.268
6877 N1 14.5311 27.7176 20.7958 N.2 0 **** 0.856
6878 N2 14.7894 28.9053 21.4756 N.2 0 **** -0.374
6879 N3 16.802 30.2378 21.2881 N.2 0 **** -0.374
6880 N4 17.77 29.244 21.1713 N.2 0 **** 0.856
6881 O1 14.6773 27.723 19.5944 O.2 0 **** -0.428
6882 O2 14.1701 26.7733 21.4635 O.2 0 **** -0.428
6883 O3 18.8674 29.481 21.6252 O.2 0 **** -0.428
6884 O4 17.4419 28.215 20.622 O.2 0 **** -0.428
6885 H 15.452 29.8347 19.7228 H 0 **** 0.053
6886 H 14.809 30.9438 20.911 H 0 **** 0.053
6887 H 13.5268 28.7303 23.1331 H 0 **** 0.053
6888 H 15.1562 28.148 23.402 H 0 **** 0.053
6889 C1 20.1985 25.559 30.009 C.3 0 **** 0.268
6890 C2 21.0418 26.6399 27.9053 C.3 0 **** 0.268
6891 N1 21.0953 27.877 30.0205 N.2 0 **** 0.856
6892 N2 20.837 26.6893 29.3407 N.2 0 **** -0.374
6893 N3 18.8244 25.3568 29.5282 N.2 0 **** -0.374
6894 N4 17.8564 26.3506 29.6449 N.2 0 **** 0.856
6895 O1 20.9491 27.8717 31.2218 O.2 0 **** -0.428
6896 O2 21.4563 28.8214 29.3528 O.2 0 **** -0.428
6897 O3 16.759 26.1137 29.191 O.2 0 **** -0.428
6898 O4 18.1845 27.3796 30.1942 O.2 0 **** -0.428
6899 H 20.1744 25.7599 31.0934 H 0 **** 0.053
6900 H 20.8174 24.6508 29.9053 H 0 **** 0.053
6901 H 22.0995 26.8644 27.6832 H 0 **** 0.053
6902 H 20.4701 27.4467 27.4142 H 0 **** 0.053
6903 C1 19.3465 25.133 26.8321 C.3 0 **** 0.268
6904 C2 18.5032 24.0521 28.9358 C.3 0 **** 0.268
6905 N1 18.4497 22.8149 26.8206 N.2 0 **** 0.856
6906 N2 18.708 24.0026 27.5004 N.2 0 **** -0.374
6907 N3 20.7206 25.3352 27.3129 N.2 0 **** -0.374
6908 N4 21.6886 24.3414 27.1961 N.2 0 **** 0.856
6909 O1 18.5959 22.8203 25.6192 O.2 0 **** -0.428
6910 O2 18.0887 21.8706 27.4883 O.2 0 **** -0.428
6911 O3 22.786 24.5783 27.65 O.2 0 **** -0.428
6912 O4 21.3605 23.3123 26.6468 O.2 0 **** -0.428
6913 H 19.3706 24.932 25.7477 H 0 **** 0.053
6914 H 18.7276 26.0411 26.9358 H 0 **** 0.053
6915 H 17.4454 23.8276 29.1579 H 0 **** 0.053
6916 H 19.0748 23.2453 29.4268 H 0 **** 0.053
6917 C1 3.09819 35.3644 23.9842 C.3 0 **** 0.268
6918 C2 3.94148 36.4453 21.8805 C.3 0 **** 0.268
6919 N1 3.99501 37.6824 23.9957 N.2 0 **** 0.856
6920 N2 3.73671 36.4947 23.3159 N.2 0 **** -0.374
6921 N3 1.72412 35.1622 23.5034 N.2 0 **** -0.374
6922 N4 0.756093 36.156 23.6201 N.2 0 **** 0.856
6923 O1 3.84886 37.677 25.197 O.2 0 **** -0.428
6924 O2 4.35605 38.6267 23.328 O.2 0 **** -0.428
6925 O3 -0.341237 35.919 23.1662 O.2 0 **** -0.428
6926 O4 1.08421 37.185 24.1694 O.2 0 **** -0.428
6927 H 3.07412 35.5653 25.0686 H 0 **** 0.053
6928 H 3.71712 34.4562 23.8805 H 0 **** 0.053
6929 H 4.99927 36.6697 21.6584 H 0 **** 0.053
6930 H 3.36987 37.252 21.3894 H 0 **** 0.053
6931 C1 2.24626 34.9383 20.8073 C.3 0 **** 0.268
6932 C2 1.40297 33.8574 22.911 C.3 0 **** 0.268
6933 N1 1.34944 32.6203 20.7958 N.2 0 **** 0.856
6934 N2 1.60774 33.808 21.4756 N.2 0 **** -0.374
6935 N3 3.62033 35.1405 21.2881 N.2 0 **** -0.374
6936 N4 4.58836 34.1467 21.1713 N.2 0 **** 0.856
6937 O1 1.49559 32.6257 19.5944 O.2 0 **** -0.428
6938 O2 0.988402 31.676 21.4635 O.2 0 **** -0.428
6939 O3 5.68569 34.3837 21.6252 O.2 0 **** -0.428
6940 O4 4.26024 33.1177 20.622 O.2 0 **** -0.428
6941 H 2.27033 34.7374 19.7228 H 0 **** 0.053
6942 H 1.62733 35.8465 20.911 H 0 **** 0.053
6943 H 0.345177 33.633 23.1331 H 0 **** 0.053
6944 H 1.97458 33.0506 23.402 H 0 **** 0.053
6945 C1 7.0168 30.4617 30.009 C.3 0 **** 0.268
6946 C2 7.86009 31.5426 27.9053 C.3 0 **** 0.268
6947 N1 7.91361 32.7797 30.0205 N.2 0 **** 0.856
6948 N2 7.65532 31.592 29.3407 N.2 0 **** -0.374
6949 N3 5.64273 30.2595 29.5282 N.2 0 **** -0.374
6950 N4 4.6747 31.2533 29.6449 N.2 0 **** 0.856
6951 O1 7.76746 32.7743 31.2218 O.2 0 **** -0.428
6952 O2 8.27465 33.724 29.3528 O.2 0 **** -0.428
6953 O3 3.57737 31.0163 29.191 O.2 0 **** -0.428
6954 O4 5.00282 32.2823 30.1942 O.2 0 **** -0.428
6955 H 6.99273 30.6626 31.0934 H 0 **** 0.053
6956 H 7.63572 29.5535 29.9053 H 0 **** 0.053
6957 H 8.91788 31.767 27.6832 H 0 **** 0.053
6958 H 7.28848 32.3494 27.4142 H 0 **** 0.053
6959 C1 6.16487 30.0356 26.8321 C.3 0 **** 0.268
6960 C2 5.32158 28.9547 28.9358 C.3 0 **** 0.268
6961 N1 5.26805 27.7176 26.8206 N.2 0 **** 0.856
6962 N2 5.52635 28.9053 27.5004 N.2 0 **** -0.374
6963 N3 7.53894 30.2378 27.3129 N.2 0 **** -0.374
6964 N4 8.50696 29.244 27.1961 N.2 0 **** 0.856
6965 O1 5.4142 27.723 25.6192 O.2 0 **** -0.428
6966 O2 4.90701 26.7733 27.4883 O.2 0 **** -0.428
6967 O3 9.60429 29.481 27.65 O.2 0 **** -0.428
6968 O4 8.17884 28.215 26.6468 O.2 0 **** -0.428
6969 H 6.18894 29.8347 25.7477 H 0 **** 0.053
6970 H 5.54594 30.9438 26.9358 H 0 **** 0.053
6971 H 4.26378 28.7303 29.1579 H 0 **** 0.053
6972 H 5.89318 28.148 29.4268 H 0 **** 0.053
6973 C1 57.2507 32.099 5.90975 C.3 0 **** 0.268
6974 C2 58.094 33.1799 3.80604 C.3 0 **** 0.268
6975 N1 58.1475 34.417 5.92124 N.2 0 **** 0.856
6976 N2 57.8892 33.2293 5.24148 N.2 0 **** -0.374
6977 N3 55.8766 31.8968 5.42894 N.2 0 **** -0.374
6978 N4 54.9086 32.8906 5.54572 N.2 0 **** 0.856
6979 O1 58.0014 34.4117 7.12261 O.2 0 **** -0.428
6980 O2 58.5085 35.3614 5.25354 O.2 0 **** -0.428
6981 O3 53.8113 32.6537 5.09182 O.2 0 **** -0.428
6982 O4 55.2367 33.9196 6.095 O.2 0 **** -0.428
6983 H 57.2266 32.2999 6.99418 H 0 **** 0.053
6984 H 57.8696 31.1908 5.80608 H 0 **** 0.053
6985 H 59.1518 33.4044 3.58397 H 0 **** 0.053
6986 H 57.5224 33.9867 3.31501 H 0 **** 0.053
6987 C1 56.3988 31.673 2.73287 C.3 0 **** 0.268
6988 C2 55.5555 30.5921 4.83657 C.3 0 **** 0.268
6989 N1 55.5019 29.3549 2.72137 N.2 0 **** 0.856
6990 N2 55.7602 30.5426 3.40114 N.2 0 **** -0.374
6991 N3 57.7728 31.8752 3.21367 N.2 0 **** -0.374
6992 N4 58.7409 30.8814 3.0969 N.2 0 **** 0.856
6993 O1 55.6481 29.3603 1.52 O.2 0 **** -0.428
6994 O2 55.1409 28.4106 3.38907 O.2 0 **** -0.428
6995 O3 59.8382 31.1183 3.5508 O.2 0 **** -0.428
6996 O4 58.4127 29.8523 2.54761 O.2 0 **** -0.428
6997 H 56.4228 31.472 1.64843 H 0 **** 0.053
6998 H 55.7798 32.5811 2.83654 H 0 **** 0.053
6999 H 54.4977 30.3676 5.05864 H 0 **** 0.053
7000 H 56.1271 29.7853 5.3276 H 0 **** 0.053
7001 C1 61.1693 27.1963 11.9346 C.3 0 **** 0.268
7002 C2 62.0126 28.2772 9.83085 C.3 0 **** 0.268
7003 N1 62.0661 29.5143 11.946 N.2 0 **** 0.856
7004 N2 61.8078 28.3267 11.2663 N.2 0 **** -0.374
7005 N3 59.7952 26.9941 11.4537 N.2 0 **** -0.374
7006 N4 58.8272 27.9879 11.5705 N.2 0 **** 0.856
7007 O1 61.92 29.509 13.1474 O.2 0 **** -0.428
7008 O2 62.4272 30.4587 11.2783 O.2 0 **** -0.428
7009 O3 57.7299 27.751 11.1166 O.2 0 **** -0.428
7010 O4 59.1553 29.0169 12.1198 O.2 0 **** -0.428
7011 H 61.1452 27.3973 13.019 H 0 **** 0.053
7012 H 61.7882 26.2882 11.8309 H 0 **** 0.053
7013 H 63.0704 28.5017 9.60877 H 0 **** 0.053
7014 H 61.441 29.084 9.33982 H 0 **** 0.053
7015 C1 60.3174 26.7703 8.75767 C.3 0 **** 0.268
7016 C2 59.4741 25.6894 10.8614 C.3 0 **** 0.268
7017 N1 59.4205 24.4523 8.74618 N.2 0 **** 0.856
7018 N2 59.6788 25.64 9.42594 N.2 0 **** -0.374
7019 N3 61.6914 26.9725 9.23848 N.2 0 **** -0.374
7020 N4 62.6595 25.9787 9.1217 N.2 0 **** 0.856
7021 O1 59.5667 24.4576 7.54481 O.2 0 **** -0.428
7022 O2 59.0595 23.5079 9.41388 O.2 0 **** -0.428
7023 O3 63.7568 26.2156 9.5756 O.2 0 **** -0.428
7024 O4 62.3313 24.9497 8.57242 O.2 0 **** -0.428
7025 H 60.3414 26.5693 7.67323 H 0 **** 0.053
7026 H 59.6984 27.6785 8.86134 H 0 **** 0.053
7027 H 58.4163 25.4649 11.0834 H 0 **** 0.053
7028 H 60.0457 24.8826 11.3524 H 0 **** 0.053
7029 C1 65.0879 22.2937 17.9594 C.3 0 **** 0.268
7030 C2 65.9312 23.3746 15.8557 C.3 0 **** 0.268
7031 N1 65.9847 24.6117 17.9709 N.2 0 **** 0.856
7032 N2 65.7264 23.424 17.2911 N.2 0 **** -0.374
7033 N3 63.7138 22.0915 17.4786 N.2 0 **** -0.374
7034 N4 62.7458 23.0853 17.5953 N.2 0 **** 0.856
7035 O1 65.8386 24.6063 19.1722 O.2 0 **** -0.428
7036 O2 66.3458 25.556 17.3032 O.2 0 **** -0.428
7037 O3 61.6485 22.8483 17.1414 O.2 0 **** -0.428
7038 O4 63.0739 24.1143 18.1446 O.2 0 **** -0.428
7039 H 65.0638 22.4946 19.0438 H 0 **** 0.053
7040 H 65.7068 21.3855 17.8557 H 0 **** 0.053
7041 H 66.989 23.599 15.6336 H 0 **** 0.053
7042 H 65.3596 24.1813 15.3646 H 0 **** 0.053
7043 C1 64.236 21.8676 14.7825 C.3 0 **** 0.268
7044 C2 63.3927 20.7867 16.8862 C.3 0 **** 0.268
7045 N1 63.3392 19.5496 14.771 N.2 0 **** 0.856
7046 N2 63.5975 20.7373 15.4507 N.2 0 **** -0.374
7047 N3 65.61 22.0698 15.2633 N.2 0 **** -0.374
7048 N4 66.5781 21.076 15.1465 N.2 0 **** 0.856
7049 O1 63.4853 19.555 13.5696 O.2 0 **** -0.428
7050 O2 62.9781 18.6053 15.4387 O.2 0 **** -0.428
7051 O3 67.6754 21.313 15.6004 O.2 0 **** -0.428
7052 O4 66.2499 20.047 14.5972 O.2 0 **** -0.428
7053 H 64.26 21.6667 13.698 H 0 **** 0.053
7054 H 63.617 22.7758 14.8861 H 0 **** 0.053
7055 H 62.3349 20.5623 17.1083 H 0 **** 0.053
7056 H 63.9643 19.9799 17.3772 H 0 **** 0.053
7057 C1 44.069 37.0017 5.90975 C.3 0 **** 0.268
7058 C2 44.9123 38.0826 3.80604 C.3 0 **** 0.268
7059 N1 44.9658 39.3197 5.92124 N.2 0 **** 0.856
7060 N2 44.7075 38.132 5.24148 N.2 0 **** -0.374
7061 N3 42.695 36.7995 5.42894 N.2 0 **** -0.374
7062 N4 41.7269 37.7933 5.54572 N.2 0 **** 0.856
7063 O1 44.8197 39.3143 7.12261 O.2 0 **** -0.428
7064 O2 45.3269 40.264 5.25354 O.2 0 **** -0.428
7065 O3 40.6296 37.5563 5.09182 O.2 0 **** -0.428
7066 O4 42.055 38.8223 6.095 O.2 0 **** -0.428
7067 H 44.045 37.2026 6.99418 H 0 **** 0.053
7068 H 44.688 36.0935 5.80608 H 0 **** 0.053
7069 H 45.9701 38.307 3.58397 H 0 **** 0.053
7070 H 44.3407 38.8894 3.31501 H 0 **** 0.053
7071 C1 43.2171 36.5756 2.73287 C.3 0 **** 0.268
7072 C2 42.3738 35.4947 4.83657 C.3 0 **** 0.268
7073 N1 42.3203 34.2576 2.72137 N.2 0 **** 0.856
7074 N2 42.5786 35.4453 3.40114 N.2 0 **** -0.374
7075 N3 44.5912 36.7778 3.21367 N.2 0 **** -0.374
7076 N4 45.5592 35.784 3.0969 N.2 0 **** 0.856
7077 O1 42.4664 34.263 1.52 O.2 0 **** -0.428
7078 O2 41.9592 33.3133 3.38907 O.2 0 **** -0.428
7079 O3 46.6565 36.021 3.5508 O.2 0 **** -0.428
7080 O4 45.2311 34.755 2.54761 O.2 0 **** -0.428
7081 H 43.2412 36.3747 1.64843 H 0 **** 0.053
7082 H 42.5982 37.4838 2.83654 H 0 **** 0.053
7083 H 41.316 35.2703 5.05864 H 0 **** 0.053
7084 H 42.9454 34.688 5.3276 H 0 **** 0.053
7085 C1 47.9876 32.099 11.9346 C.3 0 **** 0.268
7086 C2 48.8309 33.1799 9.83085 C.3 0 **** 0.268
7087 N1 48.8844 34.417 11.946 N.2 0 **** 0.856
7088 N2 48.6261 33.2293 11.2663 N.2 0 **** -0.374
7089 N3 46.6136 31.8968 11.4537 N.2 0 **** -0.374
7090 N4 45.6455 32.8906 11.5705 N.2 0 **** 0.856
7091 O1 48.7383 34.4117 13.1474 O.2 0 **** -0.428
7092 O2 49.2455 35.3614 11.2783 O.2 0 **** -0.428
7093 O3 44.5482 32.6537 11.1166 O.2 0 **** -0.428
7094 O4 45.9737 33.9196 12.1198 O.2 0 **** -0.428
7095 H 47.9636 32.2999 13.019 H 0 **** 0.053
7096 H 48.6066 31.1908 11.8309 H 0 **** 0.053
7097 H 49.8887 33.4044 9.60877 H 0 **** 0.053
7098 H 48.2593 33.9867 9.33982 H 0 **** 0.053
7099 C1 47.1357 31.673 8.75767 C.3 0 **** 0.268
7100 C2 46.2924 30.5921 10.8614 C.3 0 **** 0.268
7101 N1 46.2389 29.3549 8.74618 N.2 0 **** 0.856
7102 N2 46.4972 30.5426 9.42594 N.2 0 **** -0.374
7103 N3 48.5098 31.8752 9.23848 N.2 0 **** -0.374
7104 N4 49.4778 30.8814 9.1217 N.2 0 **** 0.856
7105 O1 46.385 29.3603 7.54481 O.2 0 **** -0.428
7106 O2 45.8778 28.4106 9.41388 O.2 0 **** -0.428
7107 O3 50.5751 31.1183 9.5756 O.2 0 **** -0.428
7108 O4 49.1497 29.8523 8.57242 O.2 0 **** -0.428
7109 H 47.1598 31.472 7.67323 H 0 **** 0.053
7110 H 46.5168 32.5811 8.86134 H 0 **** 0.053
7111 H 45.2346 30.3676 11.0834 H 0 **** 0.053
7112 H 46.864 29.7853 11.3524 H 0 **** 0.053
7113 C1 51.9062 27.1963 17.9594 C.3 0 **** 0.268
7114 C2 52.7495 28.2772 15.8557 C.3 0 **** 0.268
7115 N1 52.8031 29.5143 17.9709 N.2 0 **** 0.856
7116 N2 52.5448 28.3267 17.2911 N.2 0 **** -0.374
7117 N3 50.5322 26.9941 17.4786 N.2 0 **** -0.374
7118 N4 49.5641 27.9879 17.5953 N.2 0 **** 0.856
7119 O1 52.6569 29.509 19.1722 O.2 0 **** -0.428
7120 O2 53.1641 30.4587 17.3032 O.2 0 **** -0.428
7121 O3 48.4668 27.751 17.1414 O.2 0 **** -0.428
7122 O4 49.8923 29.0169 18.1446 O.2 0 **** -0.428
7123 H 51.8822 27.3973 19.0438 H 0 **** 0.053
7124 H 52.5252 26.2882 17.8557 H 0 **** 0.053
7125 H 53.8073 28.5017 15.6336 H 0 **** 0.053
7126 H 52.1779 29.084 15.3646 H 0 **** 0.053
7127 C1 51.0543 26.7703 14.7825 C.3 0 **** 0.268
7128 C2 50.211 25.6894 16.8862 C.3 0 **** 0.268
7129 N1 50.1575 24.4523 14.771 N.2 0 **** 0.856
7130 N2 50.4158 25.64 15.4507 N.2 0 **** -0.374
7131 N3 52.4284 26.9725 15.2633 N.2 0 **** -0.374
7132 N4 53.3964 25.9787 15.1465 N.2 0 **** 0.856
7133 O1 50.3036 24.4576 13.5696 O.2 0 **** -0.428
7134 O2 49.7965 23.5079 15.4387 O.2 0 **** -0.428
7135 O3 54.4937 26.2156 15.6004 O.2 0 **** -0.428
7136 O4 53.0683 24.9497 14.5972 O.2 0 **** -0.428
7137 H 51.0784 26.5693 13.698 H 0 **** 0.053
7138 H 50.4354 27.6785 14.8861 H 0 **** 0.053
7139 H 49.1532 25.4649 17.1083 H 0 **** 0.053
7140 H 50.7826 24.8826 17.3772 H 0 **** 0.053
7141 C1 55.8248 22.2937 23.9842 C.3 0 **** 0.268
7142 C2 56.6681 23.3746 21.8805 C.3 0 **** 0.268
7143 N1 56.7217 24.6117 23.9957 N.2 0 **** 0.856
7144 N2 56.4634 23.424 23.3159 N.2 0 **** -0.374
7145 N3 54.4508 22.0915 23.5034 N.2 0 **** -0.374
7146 N4 53.4827 23.0853 23.6201 N.2 0 **** 0.856
7147 O1 56.5755 24.6063 25.197 O.2 0 **** -0.428
7148 O2 57.0827 25.556 23.328 O.2 0 **** -0.428
7149 O3 52.3854 22.8483 23.1662 O.2 0 **** -0.428
7150 O4 53.8109 24.1143 24.1694 O.2 0 **** -0.428
7151 H 55.8008 22.4946 25.0686 H 0 **** 0.053
7152 H 56.4438 21.3855 23.8805 H 0 **** 0.053
7153 H 57.7259 23.599 21.6584 H 0 **** 0.053
7154 H 56.0965 24.1813 21.3894 H 0 **** 0.053
7155 C1 54.9729 21.8676 20.8073 C.3 0 **** 0.268
7156 C2 54.1296 20.7867 22.911 C.3 0 **** 0.268
7157 N1 54.0761 19.5496 20.7958 N.2 0 **** 0.856
7158 N2 54.3344 20.7373 21.4756 N.2 0 **** -0.374
7159 N3 56.347 22.0698 21.2881 N.2 0 **** -0.374
7160 N4 57.315 21.076 21.1713 N.2 0 **** 0.856
7161 O1 54.2222 19.555 19.5944 O.2 0 **** -0.428
7162 O2 53.7151 18.6053 21.4635 O.2 0 **** -0.428
7163 O3 58.4123 21.313 21.6252 O.2 0 **** -0.428
7164 O4 56.9869 20.047 20.622 O.2 0 **** -0.428
7165 H 54.997 21.6667 19.7228 H 0 **** 0.053
7166 H 54.354 22.7758 20.911 H 0 **** 0.053
7167 H 53.0718 20.5623 23.1331 H 0 **** 0.053
7168 H 54.7012 19.9799 23.402 H 0 **** 0.053
7169 C1 59.7435 17.391 30.009 C.3 0 **** 0.268
7170 C2 60.5867 18.4719 27.9053 C.3 0 **** 0.268
7171 N1 60.6403 19.709 30.0205 N.2 0 **** 0.856
7172 N2 60.382 18.5213 29.3407 N.2 0 **** -0.374
7173 N3 58.3694 17.1888 29.5282 N.2 0 **** -0.374
7174 N4 57.4014 18.1826 29.6449 N.2 0 **** 0.856
7175 O1 60.4941 19.7036 31.2218 O.2 0 **** -0.428
7176 O2 61.0013 20.6533 29.3528 O.2 0 **** -0.428
7177 O3 56.304 17.9456 29.191 O.2 0 **** -0.428
7178 O4 57.7295 19.2116 30.1942 O.2 0 **** -0.428
7179 H 59.7194 17.5919 31.0934 H 0 **** 0.053
7180 H 60.3624 16.4828 29.9053 H 0 **** 0.053
7181 H 61.6445 18.6963 27.6832 H 0 **** 0.053
7182 H 60.0151 19.2787 27.4142 H 0 **** 0.053
7183 C1 58.8915 16.9649 26.8321 C.3 0 **** 0.268
7184 C2 58.0482 15.884 28.9358 C.3 0 **** 0.268
7185 N1 57.9947 14.6469 26.8206 N.2 0 **** 0.856
7186 N2 58.253 15.8346 27.5004 N.2 0 **** -0.374
7187 N3 60.2656 17.1671 27.3129 N.2 0 **** -0.374
7188 N4 61.2336 16.1733 27.1961 N.2 0 **** 0.856
7189 O1 58.1409 14.6523 25.6192 O.2 0 **** -0.428
7190 O2 57.6337 13.7026 27.4883 O.2 0 **** -0.428
7191 O3 62.3309 16.4103 27.65 O.2 0 **** -0.428
7192 O4 60.9055 15.1443 26.6468 O.2 0 **** -0.428
7193 H 58.9156 16.764 25.7477 H 0 **** 0.053
7194 H 58.2726 17.8731 26.9358 H 0 **** 0.053
7195 H 56.9904 15.6596 29.1579 H 0 **** 0.053
7196 H 58.6198 15.0772 29.4268 H 0 **** 0.053
7197 C1 30.8874 2.6644 5.90975 C.3 0 **** 0.268
7198 C2 31.7306 3.7453 3.80604 C.3 0 **** 0.268
7199 N1 31.7842 4.9824 5.92124 N.2 0 **** 0.856
7200 N2 31.5259 3.7947 5.24148 N.2 0 **** -0.374
7201 N3 29.5133 2.4622 5.42894 N.2 0 **** -0.374
7202 N4 28.5453 3.456 5.54572 N.2 0 **** 0.856
7203 O1 31.638 4.977 7.12261 O.2 0 **** -0.428
7204 O2 32.1452 5.9267 5.25354 O.2 0 **** -0.428
7205 O3 27.4479 3.219 5.09182 O.2 0 **** -0.428
7206 O4 28.8734 4.485 6.095 O.2 0 **** -0.428
7207 H 30.8633 2.8653 6.99418 H 0 **** 0.053
7208 H 31.5063 1.7562 5.80608 H 0 **** 0.053
7209 H 32.7884 3.9697 3.58397 H 0 **** 0.053
7210 H 31.159 4.552 3.31501 H 0 **** 0.053
7211 C1 30.0354 2.2383 2.73287 C.3 0 **** 0.268
7212 C2 29.1921 1.1574 4.83657 C.3 0 **** 0.268
7213 N1 29.1386 -0.0797 2.72137 N.2 0 **** 0.856
7214 N2 29.3969 1.108 3.40114 N.2 0 **** -0.374
7215 N3 31.4095 2.4405 3.21367 N.2 0 **** -0.374
7216 N4 32.3775 1.4467 3.0969 N.2 0 **** 0.856
7217 O1 29.2848 -0.0743 1.52 O.2 0 **** -0.428
7218 O2 28.7776 -1.024 3.38907 O.2 0 **** -0.428
7219 O3 33.4749 1.6837 3.5508 O.2 0 **** -0.428
7220 O4 32.0494 0.4177 2.54761 O.2 0 **** -0.428
7221 H 30.0595 2.0374 1.64843 H 0 **** 0.053
7222 H 29.4165 3.1465 2.83654 H 0 **** 0.053
7223 H 28.1343 0.933 5.05864 H 0 **** 0.053
7224 H 29.7637 0.3506 5.3276 H 0 **** 0.053
7225 C1 34.806 37.0017 11.9346 C.3 0 **** 0.268
7226 C2 35.6493 38.0826 9.83085 C.3 0 **** 0.268
7227 N1 35.7028 39.3197 11.946 N.2 0 **** 0.856
7228 N2 35.4445 38.132 11.2663 N.2 0 **** -0.374
7229 N3 33.4319 36.7995 11.4537 N.2 0 **** -0.374
7230 N4 32.4639 37.7933 11.5705 N.2 0 **** 0.856
7231 O1 35.5566 39.3143 13.1474 O.2 0 **** -0.428
7232 O2 36.0638 40.264 11.2783 O.2 0 **** -0.428
7233 O3 31.3665 37.5563 11.1166 O.2 0 **** -0.428
7234 O4 32.792 38.8223 12.1198 O.2 0 **** -0.428
7235 H 34.7819 37.2026 13.019 H 0 **** 0.053
7236 H 35.4249 36.0935 11.8309 H 0 **** 0.053
7237 H 36.707 38.307 9.60877 H 0 **** 0.053
7238 H 35.0776 38.8894 9.33982 H 0 **** 0.053
7239 C1 33.954 36.5756 8.75767 C.3 0 **** 0.268
7240 C2 33.1107 35.4947 10.8614 C.3 0 **** 0.268
7241 N1 33.0572 34.2576 8.74618 N.2 0 **** 0.856
7242 N2 33.3155 35.4453 9.42594 N.2 0 **** -0.374
7243 N3 35.3281 36.7778 9.23848 N.2 0 **** -0.374
7244 N4 36.2961 35.784 9.1217 N.2 0 **** 0.856
7245 O1 33.2034 34.263 7.54481 O.2 0 **** -0.428
7246 O2 32.6962 33.3133 9.41388 O.2 0 **** -0.428
7247 O3 37.3935 36.021 9.5756 O.2 0 **** -0.428
7248 O4 35.968 34.755 8.57242 O.2 0 **** -0.428
7249 H 33.9781 36.3747 7.67323 H 0 **** 0.053
7250 H 33.3351 37.4838 8.86134 H 0 **** 0.053
7251 H 32.053 35.2703 11.0834 H 0 **** 0.053
7252 H 33.6824 34.688 11.3524 H 0 **** 0.053
7253 C1 38.7246 32.099 17.9594 C.3 0 **** 0.268
7254 C2 39.5679 33.1799 15.8557 C.3 0 **** 0.268
7255 N1 39.6214 34.417 17.9709 N.2 0 **** 0.856
7256 N2 39.3631 33.2293 17.2911 N.2 0 **** -0.374
7257 N3 37.3505 31.8968 17.4786 N.2 0 **** -0.374
7258 N4 36.3825 32.8906 17.5953 N.2 0 **** 0.856
7259 O1 39.4752 34.4117 19.1722 O.2 0 **** -0.428
7260 O2 39.9824 35.3614 17.3032 O.2 0 **** -0.428
7261 O3 35.2851 32.6537 17.1414 O.2 0 **** -0.428
7262 O4 36.7106 33.9196 18.1446 O.2 0 **** -0.428
7263 H 38.7005 32.2999 19.0438 H 0 **** 0.053
7264 H 39.3435 31.1908 17.8557 H 0 **** 0.053
7265 H 40.6257 33.4044 15.6336 H 0 **** 0.053
7266 H 38.9963 33.9867 15.3646 H 0 **** 0.053
7267 C1 37.8726 31.673 14.7825 C.3 0 **** 0.268
7268 C2 37.0294 30.5921 16.8862 C.3 0 **** 0.268
7269 N1 36.9758 29.3549 14.771 N.2 0 **** 0.856
7270 N2 37.2341 30.5426 15.4507 N.2 0 **** -0.374
7271 N3 39.2467 31.8752 15.2633 N.2 0 **** -0.374
7272 N4 40.2147 30.8814 15.1465 N.2 0 **** 0.856
7273 O1 37.122 29.3603 13.5696 O.2 0 **** -0.428
7274 O2 36.6148 28.4106 15.4387 O.2 0 **** -0.428
7275 O3 41.3121 31.1183 15.6004 O.2 0 **** -0.428
7276 O4 39.8866 29.8523 14.5972 O.2 0 **** -0.428
7277 H 37.8967 31.472 13.698 H 0 **** 0.053
7278 H 37.2537 32.5811 14.8861 H 0 **** 0.053
7279 H 35.9716 30.3676 17.1083 H 0 **** 0.053
7280 H 37.601 29.7853 17.3772 H 0 **** 0.053
7281 C1 42.6432 27.1963 23.9842 C.3 0 **** 0.268
7282 C2 43.4865 28.2772 21.8805 C.3 0 **** 0.268
7283 N1 43.54 29.5143 23.9957 N.2 0 **** 0.856
7284 N2 43.2817 28.3267 23.3159 N.2 0 **** -0.374
7285 N3 41.2691 26.9941 23.5034 N.2 0 **** -0.374
7286 N4 40.3011 27.9879 23.6201 N.2 0 **** 0.856
7287 O1 43.3938 29.509 25.197 O.2 0 **** -0.428
7288 O2 43.901 30.4587 23.328 O.2 0 **** -0.428
7289 O3 39.2038 27.751 23.1662 O.2 0 **** -0.428
7290 O4 40.6292 29.0169 24.1694 O.2 0 **** -0.428
7291 H 42.6191 27.3973 25.0686 H 0 **** 0.053
7292 H 43.2621 26.2882 23.8805 H 0 **** 0.053
7293 H 44.5443 28.5017 21.6584 H 0 **** 0.053
7294 H 42.9149 29.084 21.3894 H 0 **** 0.053
7295 C1 41.7913 26.7703 20.8073 C.3 0 **** 0.268
7296 C2 40.948 25.6894 22.911 C.3 0 **** 0.268
7297 N1 40.8944 24.4523 20.7958 N.2 0 **** 0.856
7298 N2 41.1527 25.64 21.4756 N.2 0 **** -0.374
7299 N3 43.1653 26.9725 21.2881 N.2 0 **** -0.374
7300 N4 44.1333 25.9787 21.1713 N.2 0 **** 0.856
7301 O1 41.0406 24.4576 19.5944 O.2 0 **** -0.428
7302 O2 40.5334 23.5079 21.4635 O.2 0 **** -0.428
7303 O3 45.2307 26.2156 21.6252 O.2 0 **** -0.428
7304 O4 43.8052 24.9497 20.622 O.2 0 **** -0.428
7305 H 41.8153 26.5693 19.7228 H 0 **** 0.053
7306 H 41.1723 27.6785 20.911 H 0 **** 0.053
7307 H 39.8902 25.4649 23.1331 H 0 **** 0.053
7308 H 41.5196 24.8826 23.402 H 0 **** 0.053
7309 C1 46.5618 22.2937 30.009 C.3 0 **** 0.268
7310 C2 47.4051 23.3746 27.9053 C.3 0 **** 0.268
7311 N1 47.4586 24.6117 30.0205 N.2 0 **** 0.856
7312 N2 47.2003 23.424 29.3407 N.2 0 **** -0.374
7313 N3 45.1877 22.0915 29.5282 N.2 0 **** -0.374
7314 N4 44.2197 23.0853 29.6449 N.2 0 **** 0.856
7315 O1 47.3125 24.6063 31.2218 O.2 0 **** -0.428
7316 O2 47.8196 25.556 29.3528 O.2 0 **** -0.428
7317 O3 43.1224 22.8483 29.191 O.2 0 **** -0.428
7318 O4 44.5478 24.1143 30.1942 O.2 0 **** -0.428
7319 H 46.5377 22.4946 31.0934 H 0 **** 0.053
7320 H 47.1807 21.3855 29.9053 H 0 **** 0.053
7321 H 48.4629 23.599 27.6832 H 0 **** 0.053
7322 H 46.8335 24.1813 27.4142 H 0 **** 0.053
7323 C1 45.7099 21.8676 26.8321 C.3 0 **** 0.268
7324 C2 44.8666 20.7867 28.9358 C.3 0 **** 0.268
7325 N1 44.813 19.5496 26.8206 N.2 0 **** 0.856
7326 N2 45.0713 20.7373 27.5004 N.2 0 **** -0.374
7327 N3 47.0839 22.0698 27.3129 N.2 0 **** -0.374
7328 N4 48.052 21.076 27.1961 N.2 0 **** 0.856
7329 O1 44.9592 19.555 25.6192 O.2 0 **** -0.428
7330 O2 44.452 18.6053 27.4883 O.2 0 **** -0.428
7331 O3 49.1493 21.313 27.65 O.2 0 **** -0.428
7332 O4 47.7238 20.047 26.6468 O.2 0 **** -0.428
7333 H 45.7339 21.6667 25.7477 H 0 **** 0.053
7334 H 45.0909 22.7758 26.9358 H 0 **** 0.053
7335 H 43.8088 20.5623 29.1579 H 0 **** 0.053
7336 H 45.4382 19.9799 29.4268 H 0 **** 0.053
7337 C1 21.6243 2.6644 11.9346 C.3 0 **** 0.268
7338 C2 22.4676 3.7453 9.83085 C.3 0 **** 0.268
7339 N1 22.5211 4.9824 11.946 N.2 0 **** 0.856
7340 N2 22.2628 3.7947 11.2663 N.2 0 **** -0.374
7341 N3 20.2502 2.4622 11.4537 N.2 0 **** -0.374
7342 N4 19.2822 3.456 11.5705 N.2 0 **** 0.856
7343 O1 22.375 4.977 13.1474 O.2 0 **** -0.428
7344 O2 22.8822 5.9267 11.2783 O.2 0 **** -0.428
7345 O3 18.1849 3.219 11.1166 O.2 0 **** -0.428
7346 O4 19.6103 4.485 12.1198 O.2 0 **** -0.428
7347 H 21.6002 2.8653 13.019 H 0 **** 0.053
7348 H 22.2432 1.7562 11.8309 H 0 **** 0.053
7349 H 23.5254 3.9697 9.60877 H 0 **** 0.053
7350 H 21.896 4.552 9.33982 H 0 **** 0.053
7351 C1 20.7724 2.2383 8.75767 C.3 0 **** 0.268
7352 C2 19.9291 1.1574 10.8614 C.3 0 **** 0.268
7353 N1 19.8756 -0.0797 8.74618 N.2 0 **** 0.856
7354 N2 20.1339 1.108 9.42594 N.2 0 **** -0.374
7355 N3 22.1464 2.4405 9.23848 N.2 0 **** -0.374
7356 N4 23.1145 1.4467 9.1217 N.2 0 **** 0.856
7357 O1 20.0217 -0.0743 7.54481 O.2 0 **** -0.428
7358 O2 19.5145 -1.024 9.41388 O.2 0 **** -0.428
7359 O3 24.2118 1.6837 9.5756 O.2 0 **** -0.428
7360 O4 22.7863 0.4177 8.57242 O.2 0 **** -0.428
7361 H 20.7964 2.0374 7.67323 H 0 **** 0.053
7362 H 20.1534 3.1465 8.86134 H 0 **** 0.053
7363 H 18.8713 0.933 11.0834 H 0 **** 0.053
7364 H 20.5007 0.3506 11.3524 H 0 **** 0.053
7365 C1 25.5429 37.0017 17.9594 C.3 0 **** 0.268
7366 C2 26.3862 38.0826 15.8557 C.3 0 **** 0.268
7367 N1 26.4397 39.3197 17.9709 N.2 0 **** 0.856
7368 N2 26.1814 38.132 17.2911 N.2 0 **** -0.374
7369 N3 24.1688 36.7995 17.4786 N.2 0 **** -0.374
7370 N4 23.2008 37.7933 17.5953 N.2 0 **** 0.856
7371 O1 26.2936 39.3143 19.1722 O.2 0 **** -0.428
7372 O2 26.8008 40.264 17.3032 O.2 0 **** -0.428
7373 O3 22.1035 37.5563 17.1414 O.2 0 **** -0.428
7374 O4 23.5289 38.8223 18.1446 O.2 0 **** -0.428
7375 H 25.5188 37.2026 19.0438 H 0 **** 0.053
7376 H 26.1618 36.0935 17.8557 H 0 **** 0.053
7377 H 27.444 38.307 15.6336 H 0 **** 0.053
7378 H 25.8146 38.8894 15.3646 H 0 **** 0.053
7379 C1 24.691 36.5756 14.7825 C.3 0 **** 0.268
7380 C2 23.8477 35.4947 16.8862 C.3 0 **** 0.268
7381 N1 23.7942 34.2576 14.771 N.2 0 **** 0.856
7382 N2 24.0525 35.4453 15.4507 N.2 0 **** -0.374
7383 N3 26.065 36.7778 15.2633 N.2 0 **** -0.374
7384 N4 27.0331 35.784 15.1465 N.2 0 **** 0.856
7385 O1 23.9403 34.263 13.5696 O.2 0 **** -0.428
7386 O2 23.4331 33.3133 15.4387 O.2 0 **** -0.428
7387 O3 28.1304 36.021 15.6004 O.2 0 **** -0.428
7388 O4 26.705 34.755 14.5972 O.2 0 **** -0.428
7389 H 24.715 36.3747 13.698 H 0 **** 0.053
7390 H 24.0721 37.4838 14.8861 H 0 **** 0.053
7391 H 22.7899 35.2703 17.1083 H 0 **** 0.053
7392 H 24.4193 34.688 17.3772 H 0 **** 0.053
7393 C1 29.4615 32.099 23.9842 C.3 0 **** 0.268
7394 C2 30.3048 33.1799 21.8805 C.3 0 **** 0.268
7395 N1 30.3583 34.417 23.9957 N.2 0 **** 0.856
7396 N2 30.1 33.2293 23.3159 N.2 0 **** -0.374
7397 N3 28.0874 31.8968 23.5034 N.2 0 **** -0.374
7398 N4 27.1194 32.8906 23.6201 N.2 0 **** 0.856
7399 O1 30.2122 34.4117 25.197 O.2 0 **** -0.428
7400 O2 30.7194 35.3614 23.328 O.2 0 **** -0.428
7401 O3 26.0221 32.6537 23.1662 O.2 0 **** -0.428
7402 O4 27.4475 33.9196 24.1694 O.2 0 **** -0.428
7403 H 29.4374 32.2999 25.0686 H 0 **** 0.053
7404 H 30.0804 31.1908 23.8805 H 0 **** 0.053
7405 H 31.3626 33.4044 21.6584 H 0 **** 0.053
7406 H 29.7332 33.9867 21.3894 H 0 **** 0.053
7407 C1 28.6096 31.673 20.8073 C.3 0 **** 0.268
7408 C2 27.7663 30.5921 22.911 C.3 0 **** 0.268
7409 N1 27.7128 29.3549 20.7958 N.2 0 **** 0.856
7410 N2 27.9711 30.5426 21.4756 N.2 0 **** -0.374
7411 N3 29.9837 31.8752 21.2881 N.2 0 **** -0.374
7412 N4 30.9517 30.8814 21.1713 N.2 0 **** 0.856
7413 O1 27.8589 29.3603 19.5944 O.2 0 **** -0.428
7414 O2 27.3517 28.4106 21.4635 O.2 0 **** -0.428
7415 O3 32.049 31.1183 21.6252 O.2 0 **** -0.428
7416 O4 30.6236 29.8523 20.622 O.2 0 **** -0.428
7417 H 28.6337 31.472 19.7228 H 0 **** 0.053
7418 H 27.9907 32.5811 20.911 H 0 **** 0.053
7419 H 26.7085 30.3676 23.1331 H 0 **** 0.053
7420 H 28.3379 29.7853 23.402 H 0 **** 0.053
7421 C1 33.3801 27.1963 30.009 C.3 0 **** 0.268
7422 C2 34.2234 28.2772 27.9053 C.3 0 **** 0.268
7423 N1 34.2769 29.5143 30.0205 N.2 0 **** 0.856
7424 N2 34.0186 28.3267 29.3407 N.2 0 **** -0.374
7425 N3 32.0061 26.9941 29.5282 N.2 0 **** -0.374
7426 N4 31.038 27.9879 29.6449 N.2 0 **** 0.856
7427 O1 34.1308 29.509 31.2218 O.2 0 **** -0.428
7428 O2 34.638 30.4587 29.3528 O.2 0 **** -0.428
7429 O3 29.9407 27.751 29.191 O.2 0 **** -0.428
7430 O4 31.3661 29.0169 30.1942 O.2 0 **** -0.428
7431 H 33.3561 27.3973 31.0934 H 0 **** 0.053
7432 H 33.9991 26.2882 29.9053 H 0 **** 0.053
7433 H 35.2812 28.5017 27.6832 H 0 **** 0.053
7434 H 33.6518 29.084 27.4142 H 0 **** 0.053
7435 C1 32.5282 26.7703 26.8321 C.3 0 **** 0.268
7436 C2 31.6849 25.6894 28.9358 C.3 0 **** 0.268
7437 N1 31.6314 24.4523 26.8206 N.2 0 **** 0.856
7438 N2 31.8897 25.64 27.5004 N.2 0 **** -0.374
7439 N3 33.9023 26.9725 27.3129 N.2 0 **** -0.374
7440 N4 34.8703 25.9787 27.1961 N.2 0 **** 0.856
7441 O1 31.7775 24.4576 25.6192 O.2 0 **** -0.428
7442 O2 31.2703 23.5079 27.4883 O.2 0 **** -0.428
7443 O3 35.9676 26.2156 27.65 O.2 0 **** -0.428
7444 O4 34.5422 24.9497 26.6468 O.2 0 **** -0.428
7445 H 32.5523 26.5693 25.7477 H 0 **** 0.053
7446 H 31.9093 27.6785 26.9358 H 0 **** 0.053
7447 H 30.6271 25.4649 29.1579 H 0 **** 0.053
7448 H 32.2565 24.8826 29.4268 H 0 **** 0.053
7449 C1 16.2799 37.0017 23.9842 C.3 0 **** 0.268
7450 C2 17.1231 38.0826 21.8805 C.3 0 **** 0.268
7451 N1 17.1767 39.3197 23.9957 N.2 0 **** 0.856
7452 N2 16.9184 38.132 23.3159 N.2 0 **** -0.374
7453 N3 14.9058 36.7995 23.5034 N.2 0 **** -0.374
7454 N4 13.9378 37.7933 23.6201 N.2 0 **** 0.856
7455 O1 17.0305 39.3143 25.197 O.2 0 **** -0.428
7456 O2 17.5377 40.264 23.328 O.2 0 **** -0.428
7457 O3 12.8404 37.5563 23.1662 O.2 0 **** -0.428
7458 O4 14.2659 38.8223 24.1694 O.2 0 **** -0.428
7459 H 16.2558 37.2026 25.0686 H 0 **** 0.053
7460 H 16.8988 36.0935 23.8805 H 0 **** 0.053
7461 H 18.1809 38.307 21.6584 H 0 **** 0.053
7462 H 16.5515 38.8894 21.3894 H 0 **** 0.053
7463 C1 15.4279 36.5756 20.8073 C.3 0 **** 0.268
7464 C2 14.5846 35.4947 22.911 C.3 0 **** 0.268
7465 N1 14.5311 34.2576 20.7958 N.2 0 **** 0.856
7466 N2 14.7894 35.4453 21.4756 N.2 0 **** -0.374
7467 N3 16.802 36.7778 21.2881 N.2 0 **** -0.374
7468 N4 17.77 35.784 21.1713 N.2 0 **** 0.856
7469 O1 14.6773 34.263 19.5944 O.2 0 **** -0.428
7470 O2 14.1701 33.3133 21.4635 O.2 0 **** -0.428
7471 O3 18.8674 36.021 21.6252 O.2 0 **** -0.428
7472 O4 17.4419 34.755 20.622 O.2 0 **** -0.428
7473 H 15.452 36.3747 19.7228 H 0 **** 0.053
7474 H 14.809 37.4838 20.911 H 0 **** 0.053
7475 H 13.5268 35.2703 23.1331 H 0 **** 0.053
7476 H 15.1562 34.688 23.402 H 0 **** 0.053
7477 C1 20.1985 32.099 30.009 C.3 0 **** 0.268
7478 C2 21.0418 33.1799 27.9053 C.3 0 **** 0.268
7479 N1 21.0953 34.417 30.0205 N.2 0 **** 0.856
7480 N2 20.837 33.2293 29.3407 N.2 0 **** -0.374
7481 N3 18.8244 31.8968 29.5282 N.2 0 **** -0.374
7482 N4 17.8564 32.8906 29.6449 N.2 0 **** 0.856
7483 O1 20.9491 34.4117 31.2218 O.2 0 **** -0.428
7484 O2 21.4563 35.3614 29.3528 O.2 0 **** -0.428
7485 O3 16.759 32.6537 29.191 O.2 0 **** -0.428
7486 O4 18.1845 33.9196 30.1942 O.2 0 **** -0.428
7487 H 20.1744 32.2999 31.0934 H 0 **** 0.053
7488 H 20.8174 31.1908 29.9053 H 0 **** 0.053
7489 H 22.0995 33.4044 27.6832 H 0 **** 0.053
7490 H 20.4701 33.9867 27.4142 H 0 **** 0.053
7491 C1 19.3465 31.673 26.8321 C.3 0 **** 0.268
7492 C2 18.5032 30.5921 28.9358 C.3 0 **** 0.268
7493 N1 18.4497 29.3549 26.8206 N.2 0 **** 0.856
7494 N2 18.708 30.5426 27.5004 N.2 0 **** -0.374
7495 N3 20.7206 31.8752 27.3129 N.2 0 **** -0.374
7496 N4 21.6886 30.8814 27.1961 N.2 0 **** 0.856
7497 O1 18.5959 29.3603 25.6192 O.2 0 **** -0.428
7498 O2 18.0887 28.4106 27.4883 O.2 0 **** -0.428
7499 O3 22.786 31.1183 27.65 O.2 0 **** -0.428
7500 O4 21.3605 29.8523 26.6468 O.2 0 **** -0.428
7501 H 19.3706 31.472 25.7477 H 0 **** 0.053
7502 H 18.7276 32.5811 26.9358 H 0 **** 0.053
7503 H 17.4454 30.3676 29.1579 H 0 **** 0.053
7504 H 19.0748 29.7853 29.4268 H 0 **** 0.053
7505 C1 7.0168 37.0017 30.009 C.3 0 **** 0.268
7506 C2 7.86009 38.0826 27.9053 C.3 0 **** 0.268
7507 N1 7.91361 39.3197 30.0205 N.2 0 **** 0.856
7508 N2 7.65532 38.132 29.3407 N.2 0 **** -0.374
7509 N3 5.64273 36.7995 29.5282 N.2 0 **** -0.374
7510 N4 4.6747 37.7933 29.6449 N.2 0 **** 0.856
7511 O1 7.76746 39.3143 31.2218 O.2 0 **** -0.428
7512 O2 8.27465 40.264 29.3528 O.2 0 **** -0.428
7513 O3 3.57737 37.5563 29.191 O.2 0 **** -0.428
7514 O4 5.00282 38.8223 30.1942 O.2 0 **** -0.428
7515 H 6.99273 37.2026 31.0934 H 0 **** 0.053
7516 H 7.63572 36.0935 29.9053 H 0 **** 0.053
7517 H 8.91788 38.307 27.6832 H 0 **** 0.053
7518 H 7.28848 38.8894 27.4142 H 0 **** 0.053
7519 C1 6.16487 36.5756 26.8321 C.3 0 **** 0.268
7520 C2 5.32158 35.4947 28.9358 C.3 0 **** 0.268
7521 N1 5.26805 34.2576 26.8206 N.2 0 **** 0.856
7522 N2 5.52635 35.4453 27.5004 N.2 0 **** -0.374
7523 N3 7.53894 36.7778 27.3129 N.2 0 **** -0.374
7524 N4 8.50696 35.784 27.1961 N.2 0 **** 0.856
7525 O1 5.4142 34.263 25.6192 O.2 0 **** -0.428
7526 O2 4.90701 33.3133 27.4883 O.2 0 **** -0.428
7527 O3 9.60429 36.021 27.65 O.2 0 **** -0.428
7528 O4 8.17884 34.755 26.6468 O.2 0 **** -0.428
7529 H 6.18894 36.3747 25.7477 H 0 **** 0.053
7530 H 5.54594 37.4838 26.9358 H 0 **** 0.053
7531 H 4.26378 35.2703 29.1579 H 0 **** 0.053
7532 H 5.89318 34.688 29.4268 H 0 **** 0.053
7533 C1 57.2507 38.639 5.90975 C.3 0 **** 0.268
7534 C2 58.094 39.7199 3.80604 C.3 0 **** 0.268
7535 N1 58.1475 40.957 5.92124 N.2 0 **** 0.856
7536 N2 57.8892 39.7693 5.24148 N.2 0 **** -0.374
7537 N3 55.8766 38.4368 5.42894 N.2 0 **** -0.374
7538 N4 54.9086 39.4306 5.54572 N.2 0 **** 0.856
7539 O1 58.0014 40.9517 7.12261 O.2 0 **** -0.428
7540 O2 58.5085 41.9014 5.25354 O.2 0 **** -0.428
7541 O3 53.8113 39.1937 5.09182 O.2 0 **** -0.428
7542 O4 55.2367 40.4596 6.095 O.2 0 **** -0.428
7543 H 57.2266 38.8399 6.99418 H 0 **** 0.053
7544 H 57.8696 37.7308 5.80608 H 0 **** 0.053
7545 H 59.1518 39.9444 3.58397 H 0 **** 0.053
7546 H 57.5224 40.5267 3.31501 H 0 **** 0.053
7547 C1 56.3988 38.213 2.73287 C.3 0 **** 0.268
7548 C2 55.5555 37.1321 4.83657 C.3 0 **** 0.268
7549 N1 55.5019 35.8949 2.72137 N.2 0 **** 0.856
7550 N2 55.7602 37.0826 3.40114 N.2 0 **** -0.374
7551 N3 57.7728 38.4152 3.21367 N.2 0 **** -0.374
7552 N4 58.7409 37.4214 3.0969 N.2 0 **** 0.856
7553 O1 55.6481 35.9003 1.52 O.2 0 **** -0.428
7554 O2 55.1409 34.9506 3.38907 O.2 0 **** -0.428
7555 O3 59.8382 37.6583 3.5508 O.2 0 **** -0.428
7556 O4 58.4127 36.3923 2.54761 O.2 0 **** -0.428
7557 H 56.4228 38.012 1.64843 H 0 **** 0.053
7558 H 55.7798 39.1211 2.83654 H 0 **** 0.053
7559 H 54.4977 36.9076 5.05864 H 0 **** 0.053
7560 H 56.1271 36.3253 5.3276 H 0 **** 0.053
7561 C1 61.1693 33.7363 11.9346 C.3 0 **** 0.268
7562 C2 62.0126 34.8172 9.83085 C.3 0 **** 0.268
7563 N1 62.0661 36.0543 11.946 N.2 0 **** 0.856
7564 N2 61.8078 34.8667 11.2663 N.2 0 **** -0.374
7565 N3 59.7952 33.5341 11.4537 N.2 0 **** -0.374
7566 N4 58.8272 34.5279 11.5705 N.2 0 **** 0.856
7567 O1 61.92 36.049 13.1474 O.2 0 **** -0.428
7568 O2 62.4272 36.9987 11.2783 O.2 0 **** -0.428
7569 O3 57.7299 34.291 11.1166 O.2 0 **** -0.428
7570 O4 59.1553 35.5569 12.1198 O.2 0 **** -0.428
7571 H 61.1452 33.9373 13.019 H 0 **** 0.053
7572 H 61.7882 32.8282 11.8309 H 0 **** 0.053
7573 H 63.0704 35.0417 9.60877 H 0 **** 0.053
7574 H 61.441 35.624 9.33982 H 0 **** 0.053
7575 C1 60.3174 33.3103 8.75767 C.3 0 **** 0.268
7576 C2 59.4741 32.2294 10.8614 C.3 0 **** 0.268
7577 N1 59.4205 30.9923 8.74618 N.2 0 **** 0.856
7578 N2 59.6788 32.18 9.42594 N.2 0 **** -0.374
7579 N3 61.6914 33.5125 9.23848 N.2 0 **** -0.374
7580 N4 62.6595 32.5187 9.1217 N.2 0 **** 0.856
7581 O1 59.5667 30.9976 7.54481 O.2 0 **** -0.428
7582 O2 59.0595 30.0479 9.41388 O.2 0 **** -0.428
7583 O3 63.7568 32.7556 9.5756 O.2 0 **** -0.428
7584 O4 62.3313 31.4897 8.57242 O.2 0 **** -0.428
7585 H 60.3414 33.1093 7.67323 H 0 **** 0.053
7586 H 59.6984 34.2185 8.86134 H 0 **** 0.053
7587 H 58.4163 32.0049 11.0834 H 0 **** 0.053
7588 H 60.0457 31.4226 11.3524 H 0 **** 0.053
7589 C1 65.0879 28.8337 17.9594 C.3 0 **** 0.268
7590 C2 65.9312 29.9146 15.8557 C.3 0 **** 0.268
7591 N1 65.9847 31.1517 17.9709 N.2 0 **** 0.856
7592 N2 65.7264 29.964 17.2911 N.2 0 **** -0.374
7593 N3 63.7138 28.6315 17.4786 N.2 0 **** -0.374
7594 N4 62.7458 29.6253 17.5953 N.2 0 **** 0.856
7595 O1 65.8386 31.1463 19.1722 O.2 0 **** -0.428
7596 O2 66.3458 32.096 17.3032 O.2 0 **** -0.428
7597 O3 61.6485 29.3883 17.1414 O.2 0 **** -0.428
7598 O4 63.0739 30.6543 18.1446 O.2 0 **** -0.428
7599 H 65.0638 29.0346 19.0438 H 0 **** 0.053
7600 H 65.7068 27.9255 17.8557 H 0 **** 0.053
7601 H 66.989 30.139 15.6336 H 0 **** 0.053
7602 H 65.3596 30.7213 15.3646 H 0 **** 0.053
7603 C1 64.236 28.4076 14.7825 C.3 0 **** 0.268
7604 C2 63.3927 27.3267 16.8862 C.3 0 **** 0.268
7605 N1 63.3392 26.0896 14.771 N.2 0 **** 0.856
7606 N2 63.5975 27.2773 15.4507 N.2 0 **** -0.374
7607 N3 65.61 28.6098 15.2633 N.2 0 **** -0.374
7608 N4 66.5781 27.616 15.1465 N.2 0 **** 0.856
7609 O1 63.4853 26.095 13.5696 O.2 0 **** -0.428
7610 O2 62.9781 25.1453 15.4387 O.2 0 **** -0.428
7611 O3 67.6754 27.853 15.6004 O.2 0 **** -0.428
7612 O4 66.2499 26.587 14.5972 O.2 0 **** -0.428
7613 H 64.26 28.2067 13.698 H 0 **** 0.053
7614 H 63.617 29.3158 14.8861 H 0 **** 0.053
7615 H 62.3349 27.1023 17.1083 H 0 **** 0.053
7616 H 63.9643 26.5199 17.3772 H 0 **** 0.053
7617 C1 44.069 4.3017 5.90975 C.3 0 **** 0.268
7618 C2 44.9123 5.3826 3.80604 C.3 0 **** 0.268
7619 N1 44.9658 6.6197 5.92124 N.2 0 **** 0.856
7620 N2 44.7075 5.432 5.24148 N.2 0 **** -0.374
7621 N3 42.695 4.0995 5.42894 N.2 0 **** -0.374
7622 N4 41.7269 5.0933 5.54572 N.2 0 **** 0.856
7623 O1 44.8197 6.6143 7.12261 O.2 0 **** -0.428
7624 O2 45.3269 7.564 5.25354 O.2 0 **** -0.428
7625 O3 40.6296 4.8563 5.09182 O.2 0 **** -0.428
7626 O4 42.055 6.1223 6.095 O.2 0 **** -0.428
7627 H 44.045 4.5026 6.99418 H 0 **** 0.053
7628 H 44.688 3.3935 5.80608 H 0 **** 0.053
7629 H 45.9701 5.607 3.58397 H 0 **** 0.053
7630 H 44.3407 6.1894 3.31501 H 0 **** 0.053
7631 C1 43.2171 3.8756 2.73287 C.3 0 **** 0.268
7632 C2 42.3738 2.7947 4.83657 C.3 0 **** 0.268
7633 N1 42.3203 1.5576 2.72137 N.2 0 **** 0.856
7634 N2 42.5786 2.7453 3.40114 N.2 0 **** -0.374
7635 N3 44.5912 4.0778 3.21367 N.2 0 **** -0.374
7636 N4 45.5592 3.084 3.0969 N.2 0 **** 0.856
7637 O1 42.4664 1.563 1.52 O.2 0 **** -0.428
7638 O2 41.9592 0.6133 3.38907 O.2 0 **** -0.428
7639 O3 46.6565 3.321 3.5508 O.2 0 **** -0.428
7640 O4 45.2311 2.055 2.54761 O.2 0 **** -0.428
7641 H 43.2412 3.6747 1.64843 H 0 **** 0.053
7642 H 42.5982 4.7838 2.83654 H 0 **** 0.053
7643 H 41.316 2.5703 5.05864 H 0 **** 0.053
7644 H 42.9454 1.988 5.3276 H 0 **** 0.053
7645 C1 47.9876 38.639 11.9346 C.3 0 **** 0.268
7646 C2 48.8309 39.7199 9.83085 C.3 0 **** 0.268
7647 N1 48.8844 40.957 11.946 N.2 0 **** 0.856
7648 N2 48.6261 39.7693 11.2663 N.2 0 **** -0.374
7649 N3 46.6136 38.4368 11.4537 N.2 0 **** -0.374
7650 N4 45.6455 39.4306 11.5705 N.2 0 **** 0.856
7651 O1 48.7383 40.9517 13.1474 O.2 0 **** -0.428
7652 O2 49.2455 41.9014 11.2783 O.2 0 **** -0.428
7653 O3 44.5482 39.1937 11.1166 O.2 0 **** -0.428
7654 O4 45.9737 40.4596 12.1198 O.2 0 **** -0.428
7655 H 47.9636 38.8399 13.019 H 0 **** 0.053
7656 H 48.6066 37.7308 11.8309 H 0 **** 0.053
7657 H 49.8887 39.9444 9.60877 H 0 **** 0.053
7658 H 48.2593 40.5267 9.33982 H 0 **** 0.053
7659 C1 47.1357 38.213 8.75767 C.3 0 **** 0.268
7660 C2 46.2924 37.1321 10.8614 C.3 0 **** 0.268
7661 N1 46.2389 35.8949 8.74618 N.2 0 **** 0.856
7662 N2 46.4972 37.0826 9.42594 N.2 0 **** -0.374
7663 N3 48.5098 38.4152 9.23848 N.2 0 **** -0.374
7664 N4 49.4778 37.4214 9.1217 N.2 0 **** 0.856
7665 O1 46.385 35.9003 7.54481 O.2 0 **** -0.428
7666 O2 45.8778 34.9506 9.41388 O.2 0 **** -0.428
7667 O3 50.5751 37.6583 9.5756 O.2 0 **** -0.428
7668 O4 49.1497 36.3923 8.57242 O.2 0 **** -0.428
7669 H 47.1598 38.012 7.67323 H 0 **** 0.053
7670 H 46.5168 39.1211 8.86134 H 0 **** 0.053
7671 H 45.2346 36.9076 11.0834 H 0 **** 0.053
7672 H 46.864 36.3253 11.3524 H 0 **** 0.053
7673 C1 51.9062 33.7363 17.9594 C.3 0 **** 0.268
7674 C2 52.7495 34.8172 15.8557 C.3 0 **** 0.268
7675 N1 52.8031 36.0543 17.9709 N.2 0 **** 0.856
7676 N2 52.5448 34.8667 17.2911 N.2 0 **** -0.374
7677 N3 50.5322 33.5341 17.4786 N.2 0 **** -0.374
7678 N4 49.5641 34.5279 17.5953 N.2 0 **** 0.856
7679 O1 52.6569 36.049 19.1722 O.2 0 **** -0.428
7680 O2 53.1641 36.9987 17.3032 O.2 0 **** -0.428
7681 O3 48.4668 34.291 17.1414 O.2 0 **** -0.428
7682 O4 49.8923 35.5569 18.1446 O.2 0 **** -0.428
7683 H 51.8822 33.9373 19.0438 H 0 **** 0.053
7684 H 52.5252 32.8282 17.8557 H 0 **** 0.053
7685 H 53.8073 35.0417 15.6336 H 0 **** 0.053
7686 H 52.1779 35.624 15.3646 H 0 **** 0.053
7687 C1 51.0543 33.3103 14.7825 C.3 0 **** 0.268
7688 C2 50.211 32.2294 16.8862 C.3 0 **** 0.268
7689 N1 50.1575 30.9923 14.771 N.2 0 **** 0.856
7690 N2 50.4158 32.18 15.4507 N.2 0 **** -0.374
7691 N3 52.4284 33.5125 15.2633 N.2 0 **** -0.374
7692 N4 53.3964 32.5187 15.1465 N.2 0 **** 0.856
7693 O1 50.3036 30.9976 13.5696 O.2 0 **** -0.428
7694 O2 49.7965 30.0479 15.4387 O.2 0 **** -0.428
7695 O3 54.4937 32.7556 15.6004 O.2 0 **** -0.428
7696 O4 53.0683 31.4897 14.5972 O.2 0 **** -0.428
7697 H 51.0784 33.1093 13.698 H 0 **** 0.053
7698 H 50.4354 34.2185 14.8861 H 0 **** 0.053
7699 H 49.1532 32.0049 17.1083 H 0 **** 0.053
7700 H 50.7826 31.4226 17.3772 H 0 **** 0.053
7701 C1 55.8248 28.8337 23.9842 C.3 0 **** 0.268
7702 C2 56.6681 29.9146 21.8805 C.3 0 **** 0.268
7703 N1 56.7217 31.1517 23.9957 N.2 0 **** 0.856
7704 N2 56.4634 29.964 23.3159 N.2 0 **** -0.374
7705 N3 54.4508 28.6315 23.5034 N.2 0 **** -0.374
7706 N4 53.4827 29.6253 23.6201 N.2 0 **** 0.856
7707 O1 56.5755 31.1463 25.197 O.2 0 **** -0.428
7708 O2 57.0827 32.096 23.328 O.2 0 **** -0.428
7709 O3 52.3854 29.3883 23.1662 O.2 0 **** -0.428
7710 O4 53.8109 30.6543 24.1694 O.2 0 **** -0.428
7711 H 55.8008 29.0346 25.0686 H 0 **** 0.053
7712 H 56.4438 27.9255 23.8805 H 0 **** 0.053
7713 H 57.7259 30.139 21.6584 H 0 **** 0.053
7714 H 56.0965 30.7213 21.3894 H 0 **** 0.053
7715 C1 54.9729 28.4076 20.8073 C.3 0 **** 0.268
7716 C2 54.1296 27.3267 22.911 C.3 0 **** 0.268
7717 N1 54.0761 26.0896 20.7958 N.2 0 **** 0.856
7718 N2 54.3344 27.2773 21.4756 N.2 0 **** -0.374
7719 N3 56.347 28.6098 21.2881 N.2 0 **** -0.374
7720 N4 57.315 27.616 21.1713 N.2 0 **** 0.856
7721 O1 54.2222 26.095 19.5944 O.2 0 **** -0.428
7722 O2 53.7151 25.1453 21.4635 O.2 0 **** -0.428
7723 O3 58.4123 27.853 21.6252 O.2 0 **** -0.428
7724 O4 56.9869 26.587 20.622 O.2 0 **** -0.428
7725 H 54.997 28.2067 19.7228 H 0 **** 0.053
7726 H 54.354 29.3158 20.911 H 0 **** 0.053
7727 H 53.0718 27.1023 23.1331 H 0 **** 0.053
7728 H 54.7012 26.5199 23.402 H 0 **** 0.053
7729 C1 59.7435 23.931 30.009 C.3 0 **** 0.268
7730 C2 60.5867 25.0119 27.9053 C.3 0 **** 0.268
7731 N1 60.6403 26.249 30.0205 N.2 0 **** 0.856
7732 N2 60.382 25.0613 29.3407 N.2 0 **** -0.374
7733 N3 58.3694 23.7288 29.5282 N.2 0 **** -0.374
7734 N4 57.4014 24.7226 29.6449 N.2 0 **** 0.856
7735 O1 60.4941 26.2436 31.2218 O.2 0 **** -0.428
7736 O2 61.0013 27.1933 29.3528 O.2 0 **** -0.428
7737 O3 56.304 24.4856 29.191 O.2 0 **** -0.428
7738 O4 57.7295 25.7516 30.1942 O.2 0 **** -0.428
7739 H 59.7194 24.1319 31.0934 H 0 **** 0.053
7740 H 60.3624 23.0228 29.9053 H 0 **** 0.053
7741 H 61.6445 25.2363 27.6832 H 0 **** 0.053
7742 H 60.0151 25.8187 27.4142 H 0 **** 0.053
7743 C1 58.8915 23.5049 26.8321 C.3 0 **** 0.268
7744 C2 58.0482 22.424 28.9358 C.3 0 **** 0.268
7745 N1 57.9947 21.1869 26.8206 N.2 0 **** 0.856
7746 N2 58.253 22.3746 27.5004 N.2 0 **** -0.374
7747 N3 60.2656 23.7071 27.3129 N.2 0 **** -0.374
7748 N4 61.2336 22.7133 27.1961 N.2 0 **** 0.856
7749 O1 58.1409 21.1923 25.6192 O.2 0 **** -0.428
7750 O2 57.6337 20.2426 27.4883 O.2 0 **** -0.428
7751 O3 62.3309 22.9503 27.65 O.2 0 **** -0.428
7752 O4 60.9055 21.6843 26.6468 O.2 0 **** -0.428
7753 H 58.9156 23.304 25.7477 H 0 **** 0.053
7754 H 58.2726 24.4131 26.9358 H 0 **** 0.053
7755 H 56.9904 22.1996 29.1579 H 0 **** 0.053
7756 H 58.6198 21.6172 29.4268 H 0 **** 0.053
7757 C1 34.806 4.3017 11.9346 C.3 0 **** 0.268
7758 C2 35.6493 5.3826 9.83085 C.3 0 **** 0.268
7759 N1 35.7028 6.6197 11.946 N.2 0 **** 0.856
7760 N2 35.4445 5.432 11.2663 N.2 0 **** -0.374
7761 N3 33.4319 4.0995 11.4537 N.2 0 **** -0.374
7762 N4 32.4639 5.0933 11.5705 N.2 0 **** 0.856
7763 O1 35.5566 6.6143 13.1474 O.2 0 **** -0.428
7764 O2 36.0638 7.564 11.2783 O.2 0 **** -0.428
7765 O3 31.3665 4.8563 11.1166 O.2 0 **** -0.428
7766 O4 32.792 6.1223 12.1198 O.2 0 **** -0.428
7767 H 34.7819 4.5026 13.019 H 0 **** 0.053
7768 H 35.4249 3.3935 11.8309 H 0 **** 0.053
7769 H 36.707 5.607 9.60877 H 0 **** 0.053
7770 H 35.0776 6.1894 9.33982 H 0 **** 0.053
7771 C1 33.954 3.8756 8.75767 C.3 0 **** 0.268
7772 C2 33.1107 2.7947 10.8614 C.3 0 **** 0.268
7773 N1 33.0572 1.5576 8.74618 N.2 0 **** 0.856
7774 N2 33.3155 2.7453 9.42594 N.2 0 **** -0.374
7775 N3 35.3281 4.0778 9.23848 N.2 0 **** -0.374
7776 N4 36.2961 3.084 9.1217 N.2 0 **** 0.856
7777 O1 33.2034 1.563 7.54481 O.2 0 **** -0.428
7778 O2 32.6962 0.6133 9.41388 O.2 0 **** -0.428
7779 O3 37.3935 3.321 9.5756 O.2 0 **** -0.428
7780 O4 35.968 2.055 8.57242 O.2 0 **** -0.428
7781 H 33.9781 3.6747 7.67323 H 0 **** 0.053
7782 H 33.3351 4.7838 8.86134 H 0 **** 0.053
7783 H 32.053 2.5703 11.0834 H 0 **** 0.053
7784 H 33.6824 1.988 11.3524 H 0 **** 0.053
7785 C1 38.7246 38.639 17.9594 C.3 0 **** 0.268
7786 C2 39.5679 39.7199 15.8557 C.3 0 **** 0.268
7787 N1 39.6214 40.957 17.9709 N.2 0 **** 0.856
7788 N2 39.3631 39.7693 17.2911 N.2 0 **** -0.374
7789 N3 37.3505 38.4368 17.4786 N.2 0 **** -0.374
7790 N4 36.3825 39.4306 17.5953 N.2 0 **** 0.856
7791 O1 39.4752 40.9517 19.1722 O.2 0 **** -0.428
7792 O2 39.9824 41.9014 17.3032 O.2 0 **** -0.428
7793 O3 35.2851 39.1937 17.1414 O.2 0 **** -0.428
7794 O4 36.7106 40.4596 18.1446 O.2 0 **** -0.428
7795 H 38.7005 38.8399 19.0438 H 0 **** 0.053
7796 H 39.3435 37.7308 17.8557 H 0 **** 0.053
7797 H 40.6257 39.9444 15.6336 H 0 **** 0.053
7798 H 38.9963 40.5267 15.3646 H 0 **** 0.053
7799 C1 37.8726 38.213 14.7825 C.3 0 **** 0.268
7800 C2 37.0294 37.1321 16.8862 C.3 0 **** 0.268
7801 N1 36.9758 35.8949 14.771 N.2 0 **** 0.856
7802 N2 37.2341 37.0826 15.4507 N.2 0 **** -0.374
7803 N3 39.2467 38.4152 15.2633 N.2 0 **** -0.374
7804 N4 40.2147 37.4214 15.1465 N.2 0 **** 0.856
7805 O1 37.122 35.9003 13.5696 O.2 0 **** -0.428
7806 O2 36.6148 34.9506 15.4387 O.2 0 **** -0.428
7807 O3 41.3121 37.6583 15.6004 O.2 0 **** -0.428
7808 O4 39.8866 36.3923 14.5972 O.2 0 **** -0.428
7809 H 37.8967 38.012 13.698 H 0 **** 0.053
7810 H 37.2537 39.1211 14.8861 H 0 **** 0.053
7811 H 35.9716 36.9076 17.1083 H 0 **** 0.053
7812 H 37.601 36.3253 17.3772 H 0 **** 0.053
7813 C1 42.6432 33.7363 23.9842 C.3 0 **** 0.268
7814 C2 43.4865 34.8172 21.8805 C.3 0 **** 0.268
7815 N1 43.54 36.0543 23.9957 N.2 0 **** 0.856
7816 N2 43.2817 34.8667 23.3159 N.2 0 **** -0.374
7817 N3 41.2691 33.5341 23.5034 N.2 0 **** -0.374
7818 N4 40.3011 34.5279 23.6201 N.2 0 **** 0.856
7819 O1 43.3938 36.049 25.197 O.2 0 **** -0.428
7820 O2 43.901 36.9987 23.328 O.2 0 **** -0.428
7821 O3 39.2038 34.291 23.1662 O.2 0 **** -0.428
7822 O4 40.6292 35.5569 24.1694 O.2 0 **** -0.428
7823 H 42.6191 33.9373 25.0686 H 0 **** 0.053
7824 H 43.2621 32.8282 23.8805 H 0 **** 0.053
7825 H 44.5443 35.0417 21.6584 H 0 **** 0.053
7826 H 42.9149 35.624 21.3894 H 0 **** 0.053
7827 C1 41.7913 33.3103 20.8073 C.3 0 **** 0.268
7828 C2 40.948 32.2294 22.911 C.3 0 **** 0.268
7829 N1 40.8944 30.9923 20.7958 N.2 0 **** 0.856
7830 N2 41.1527 32.18 21.4756 N.2 0 **** -0.374
7831 N3 43.1653 33.5125 21.2881 N.2 0 **** -0.374
7832 N4 44.1333 32.5187 21.1713 N.2 0 **** 0.856
7833 O1 41.0406 30.9976 19.5944 O.2 0 **** -0.428
7834 O2 40.5334 30.0479 21.4635 O.2 0 **** -0.428
7835 O3 45.2307 32.7556 21.6252 O.2 0 **** -0.428
7836 O4 43.8052 31.4897 20.622 O.2 0 **** -0.428
7837 H 41.8153 33.1093 19.7228 H 0 **** 0.053
7838 H 41.1723 34.2185 20.911 H 0 **** 0.053
7839 H 39.8902 32.0049 23.1331 H 0 **** 0.053
7840 H 41.5196 31.4226 23.402 H 0 **** 0.053
7841 C1 46.5618 28.8337 30.009 C.3 0 **** 0.268
7842 C2 47.4051 29.9146 27.9053 C.3 0 **** 0.268
7843 N1 47.4586 31.1517 30.0205 N.2 0 **** 0.856
7844 N2 47.2003 29.964 29.3407 N.2 0 **** -0.374
7845 N3 45.1877 28.6315 29.5282 N.2 0 **** -0.374
7846 N4 44.2197 29.6253 29.6449 N.2 0 **** 0.856
7847 O1 47.3125 31.1463 31.2218 O.2 0 **** -0.428
7848 O2 47.8196 32.096 29.3528 O.2 0 **** -0.428
7849 O3 43.1224 29.3883 29.191 O.2 0 **** -0.428
7850 O4 44.5478 30.6543 30.1942 O.2 0 **** -0.428
7851 H 46.5377 29.0346 31.0934 H 0 **** 0.053
7852 H 47.1807 27.9255 29.9053 H 0 **** 0.053
7853 H 48.4629 30.139 27.6832 H 0 **** 0.053
7854 H 46.8335 30.7213 27.4142 H 0 **** 0.053
7855 C1 45.7099 28.4076 26.8321 C.3 0 **** 0.268
7856 C2 44.8666 27.3267 28.9358 C.3 0 **** 0.268
7857 N1 44.813 26.0896 26.8206 N.2 0 **** 0.856
7858 N2 45.0713 27.2773 27.5004 N.2 0 **** -0.374
7859 N3 47.0839 28.6098 27.3129 N.2 0 **** -0.374
7860 N4 48.052 27.616 27.1961 N.2 0 **** 0.856
7861 O1 44.9592 26.095 25.6192 O.2 0 **** -0.428
7862 O2 44.452 25.1453 27.4883 O.2 0 **** -0.428
7863 O3 49.1493 27.853 27.65 O.2 0 **** -0.428
7864 O4 47.7238 26.587 26.6468 O.2 0 **** -0.428
7865 H 45.7339 28.2067 25.7477 H 0 **** 0.053
7866 H 45.0909 29.3158 26.9358 H 0 **** 0.053
7867 H 43.8088 27.1023 29.1579 H 0 **** 0.053
7868 H 45.4382 26.5199 29.4268 H 0 **** 0.053
7869 C1 29.4615 38.639 23.9842 C.3 0 **** 0.268
7870 C2 30.3048 39.7199 21.8805 C.3 0 **** 0.268
7871 N1 30.3583 40.957 23.9957 N.2 0 **** 0.856
7872 N2 30.1 39.7693 23.3159 N.2 0 **** -0.374
7873 N3 28.0874 38.4368 23.5034 N.2 0 **** -0.374
7874 N4 27.1194 39.4306 23.6201 N.2 0 **** 0.856
7875 O1 30.2122 40.9517 25.197 O.2 0 **** -0.428
7876 O2 30.7194 41.9014 23.328 O.2 0 **** -0.428
7877 O3 26.0221 39.1937 23.1662 O.2 0 **** -0.428
7878 O4 27.4475 40.4596 24.1694 O.2 0 **** -0.428
7879 H 29.4374 38.8399 25.0686 H 0 **** 0.053
7880 H 30.0804 37.7308 23.8805 H 0 **** 0.053
7881 H 31.3626 39.9444 21.6584 H 0 **** 0.053
7882 H 29.7332 40.5267 21.3894 H 0 **** 0.053
7883 C1 28.6096 38.213 20.8073 C.3 0 **** 0.268
7884 C2 27.7663 37.1321 22.911 C.3 0 **** 0.268
7885 N1 27.7128 35.8949 20.7958 N.2 0 **** 0.856
7886 N2 27.9711 37.0826 21.4756 N.2 0 **** -0.374
7887 N3 29.9837 38.4152 21.2881 N.2 0 **** -0.374
7888 N4 30.9517 37.4214 21.1713 N.2 0 **** 0.856
7889 O1 27.8589 35.9003 19.5944 O.2 0 **** -0.428
7890 O2 27.3517 34.9506 21.4635 O.2 0 **** -0.428
7891 O3 32.049 37.6583 21.6252 O.2 0 **** -0.428
7892 O4 30.6236 36.3923 20.622 O.2 0 **** -0.428
7893 H 28.6337 38.012 19.7228 H 0 **** 0.053
7894 H 27.9907 39.1211 20.911 H 0 **** 0.053
7895 H 26.7085 36.9076 23.1331 H 0 **** 0.053
7896 H 28.3379 36.3253 23.402 H 0 **** 0.053
7897 C1 33.3801 33.7363 30.009 C.3 0 **** 0.268
7898 C2 34.2234 34.8172 27.9053 C.3 0 **** 0.268
7899 N1 34.2769 36.0543 30.0205 N.2 0 **** 0.856
7900 N2 34.0186 34.8667 29.3407 N.2 0 **** -0.374
7901 N3 32.0061 33.5341 29.5282 N.2 0 **** -0.374
7902 N4 31.038 34.5279 29.6449 N.2 0 **** 0.856
7903 O1 34.1308 36.049 31.2218 O.2 0 **** -0.428
7904 O2 34.638 36.9987 29.3528 O.2 0 **** -0.428
7905 O3 29.9407 34.291 29.191 O.2 0 **** -0.428
7906 O4 31.3661 35.5569 30.1942 O.2 0 **** -0.428
7907 H 33.3561 33.9373 31.0934 H 0 **** 0.053
7908 H 33.9991 32.8282 29.9053 H 0 **** 0.053
7909 H 35.2812 35.0417 27.6832 H 0 **** 0.053
7910 H 33.6518 35.624 27.4142 H 0 **** 0.053
7911 C1 32.5282 33.3103 26.8321 C.3 0 **** 0.268
7912 C2 31.6849 32.2294 28.9358 C.3 0 **** 0.268
7913 N1 31.6314 30.9923 26.8206 N.2 0 **** 0.856
7914 N2 31.8897 32.18 27.5004 N.2 0 **** -0.374
7915 N3 33.9023 33.5125 27.3129 N.2 0 **** -0.374
7916 N4 34.8703 32.5187 27.1961 N.2 0 **** 0.856
7917 O1 31.7775 30.9976 25.6192 O.2 0 **** -0.428
7918 O2 31.2703 30.0479 27.4883 O.2 0 **** -0.428
7919 O3 35.9676 32.7556 27.65 O.2 0 **** -0.428
7920 O4 34.5422 31.4897 26.6468 O.2 0 **** -0.428
7921 H 32.5523 33.1093 25.7477 H 0 **** 0.053
7922 H 31.9093 34.2185 26.9358 H 0 **** 0.053
7923 H 30.6271 32.0049 29.1579 H 0 **** 0.053
7924 H 32.2565 31.4226 29.4268 H 0 **** 0.053
7925 C1 20.1985 38.639 30.009 C.3 0 **** 0.268
7926 C2 21.0418 39.7199 27.9053 C.3 0 **** 0.268
7927 N1 21.0953 40.957 30.0205 N.2 0 **** 0.856
7928 N2 20.837 39.7693 29.3407 N.2 0 **** -0.374
7929 N3 18.8244 38.4368 29.5282 N.2 0 **** -0.374
7930 N4 17.8564 39.4306 29.6449 N.2 0 **** 0.856
7931 O1 20.9491 40.9517 31.2218 O.2 0 **** -0.428
7932 O2 21.4563 41.9014 29.3528 O.2 0 **** -0.428
7933 O3 16.759 39.1937 29.191 O.2 0 **** -0.428
7934 O4 18.1845 40.4596 30.1942 O.2 0 **** -0.428
7935 H 20.1744 38.8399 31.0934 H 0 **** 0.053
7936 H 20.8174 37.7308 29.9053 H 0 **** 0.053
7937 H 22.0995 39.9444 27.6832 H 0 **** 0.053
7938 H 20.4701 40.5267 27.4142 H 0 **** 0.053
7939 C1 19.3465 38.213 26.8321 C.3 0 **** 0.268
7940 C2 18.5032 37.1321 28.9358 C.3 0 **** 0.268
7941 N1 18.4497 35.8949 26.8206 N.2 0 **** 0.856
7942 N2 18.708 37.0826 27.5004 N.2 0 **** -0.374
7943 N3 20.7206 38.4152 27.3129 N.2 0 **** -0.374
7944 N4 21.6886 37.4214 27.1961 N.2 0 **** 0.856
7945 O1 18.5959 35.9003 25.6192 O.2 0 **** -0.428
7946 O2 18.0887 34.9506 27.4883 O.2 0 **** -0.428
7947 O3 22.786 37.6583 27.65 O.2 0 **** -0.428
7948 O4 21.3605 36.3923 26.6468 O.2 0 **** -0.428
7949 H 19.3706 38.012 25.7477 H 0 **** 0.053
7950 H 18.7276 39.1211 26.9358 H 0 **** 0.053
7951 H 17.4454 36.9076 29.1579 H 0 **** 0.053
7952 H 19.0748 36.3253 29.4268 H 0 **** 0.053
7953 C1 57.2507 5.939 5.90975 C.3 0 **** 0.268
7954 C2 58.094 7.0199 3.80604 C.3 0 **** 0.268
7955 N1 58.1475 8.257 5.92124 N.2 0 **** 0.856
7956 N2 57.8892 7.0693 5.24148 N.2 0 **** -0.374
7957 N3 55.8766 5.7368 5.42894 N.2 0 **** -0.374
7958 N4 54.9086 6.7306 5.54572 N.2 0 **** 0.856
7959 O1 58.0014 8.2517 7.12261 O.2 0 **** -0.428
7960 O2 58.5085 9.2014 5.25354 O.2 0 **** -0.428
7961 O3 53.8113 6.4937 5.09182 O.2 0 **** -0.428
7962 O4 55.2367 7.7596 6.095 O.2 0 **** -0.428
7963 H 57.2266 6.1399 6.99418 H 0 **** 0.053
7964 H 57.8696 5.0308 5.80608 H 0 **** 0.053
7965 H 59.1518 7.2444 3.58397 H 0 **** 0.053
7966 H 57.5224 7.8267 3.31501 H 0 **** 0.053
7967 C1 56.3988 5.513 2.73287 C.3 0 **** 0.268
7968 C2 55.5555 4.4321 4.83657 C.3 0 **** 0.268
7969 N1 55.5019 3.1949 2.72137 N.2 0 **** 0.856
7970 N2 55.7602 4.3826 3.40114 N.2 0 **** -0.374
7971 N3 57.7728 5.7152 3.21367 N.2 0 **** -0.374
7972 N4 58.7409 4.7214 3.0969 N.2 0 **** 0.856
7973 O1 55.6481 3.2003 1.52 O.2 0 **** -0.428
7974 O2 55.1409 2.2506 3.38907 O.2 0 **** -0.428
7975 O3 59.8382 4.9583 3.5508 O.2 0 **** -0.428
7976 O4 58.4127 3.6923 2.54761 O.2 0 **** -0.428
7977 H 56.4228 5.312 1.64843 H 0 **** 0.053
7978 H 55.7798 6.4211 2.83654 H 0 **** 0.053
7979 H 54.4977 4.2076 5.05864 H 0 **** 0.053
7980 H 56.1271 3.6253 5.3276 H 0 **** 0.053
7981 C1 61.1693 1.0363 11.9346 C.3 0 **** 0.268
7982 C2 62.0126 2.1172 9.83085 C.3 0 **** 0.268
7983 N1 62.0661 3.3543 11.946 N.2 0 **** 0.856
7984 N2 61.8078 2.1667 11.2663 N.2 0 **** -0.374
7985 N3 59.7952 0.8341 11.4537 N.2 0 **** -0.374
7986 N4 58.8272 1.8279 11.5705 N.2 0 **** 0.856
7987 O1 61.92 3.349 13.1474 O.2 0 **** -0.428
7988 O2 62.4272 4.2987 11.2783 O.2 0 **** -0.428
7989 O3 57.7299 1.591 11.1166 O.2 0 **** -0.428
7990 O4 59.1553 2.8569 12.1198 O.2 0 **** -0.428
7991 H 61.1452 1.2373 13.019 H 0 **** 0.053
7992 H 61.7882 0.1282 11.8309 H 0 **** 0.053
7993 H 63.0704 2.3417 9.60877 H 0 **** 0.053
7994 H 61.441 2.924 9.33982 H 0 **** 0.053
7995 C1 60.3174 0.6103 8.75767 C.3 0 **** 0.268
7996 C2 59.4741 -0.4706 10.8614 C.3 0 **** 0.268
7997 N1 59.4205 -1.7077 8.74618 N.2 0 **** 0.856
7998 N2 59.6788 -0.52 9.42594 N.2 0 **** -0.374
7999 N3 61.6914 0.8125 9.23848 N.2 0 **** -0.374
8000 N4 62.6595 -0.1813 9.1217 N.2 0 **** 0.856
8001 O1 59.5667 -1.7024 7.54481 O.2 0 **** -0.428
8002 O2 59.0595 -2.6521 9.41388 O.2 0 **** -0.428
8003 O3 63.7568 0.0556 9.5756 O.2 0 **** -0.428
8004 O4 62.3313 -1.2103 8.57242 O.2 0 **** -0.428
8005 H 60.3414 0.4093 7.67323 H 0 **** 0.053
8006 H 59.6984 1.5185 8.86134 H 0 **** 0.053
8007 H 58.4163 -0.6951 11.0834 H 0 **** 0.053
8008 H 60.0457 -1.2774 11.3524 H 0 **** 0.053
8009 C1 65.0879 35.3737 17.9594 C.3 0 **** 0.268
8010 C2 65.9312 36.4546 15.8557 C.3 0 **** 0.268
8011 N1 65.9847 37.6917 17.9709 N.2 0 **** 0.856
8012 N2 65.7264 36.504 17.2911 N.2 0 **** -0.374
8013 N3 63.7138 35.1715 17.4786 N.2 0 **** -0.374
8014 N4 62.7458 36.1653 17.5953 N.2 0 **** 0.856
8015 O1 65.8386 37.6863 19.1722 O.2 0 **** -0.428
8016 O2 66.3458 38.636 17.3032 O.2 0 **** -0.428
8017 O3 61.6485 35.9283 17.1414 O.2 0 **** -0.428
8018 O4 63.0739 37.1943 18.1446 O.2 0 **** -0.428
8019 H 65.0638 35.5746 19.0438 H 0 **** 0.053
8020 H 65.7068 34.4655 17.8557 H 0 **** 0.053
8021 H 66.989 36.679 15.6336 H 0 **** 0.053
8022 H 65.3596 37.2613 15.3646 H 0 **** 0.053
8023 C1 64.236 34.9476 14.7825 C.3 0 **** 0.268
8024 C2 63.3927 33.8667 16.8862 C.3 0 **** 0.268
8025 N1 63.3392 32.6296 14.771 N.2 0 **** 0.856
8026 N2 63.5975 33.8173 15.4507 N.2 0 **** -0.374
8027 N3 65.61 35.1498 15.2633 N.2 0 **** -0.374
8028 N4 66.5781 34.156 15.1465 N.2 0 **** 0.856
8029 O1 63.4853 32.635 13.5696 O.2 0 **** -0.428
8030 O2 62.9781 31.6853 15.4387 O.2 0 **** -0.428
8031 O3 67.6754 34.393 15.6004 O.2 0 **** -0.428
8032 O4 66.2499 33.127 14.5972 O.2 0 **** -0.428
8033 H 64.26 34.7467 13.698 H 0 **** 0.053
8034 H 63.617 35.8558 14.8861 H 0 **** 0.053
8035 H 62.3349 33.6423 17.1083 H 0 **** 0.053
8036 H 63.9643 33.0599 17.3772 H 0 **** 0.053
8037 C1 47.9876 5.939 11.9346 C.3 0 **** 0.268
8038 C2 48.8309 7.0199 9.83085 C.3 0 **** 0.268
8039 N1 48.8844 8.257 11.946 N.2 0 **** 0.856
8040 N2 48.6261 7.0693 11.2663 N.2 0 **** -0.374
8041 N3 46.6136 5.7368 11.4537 N.2 0 **** -0.374
8042 N4 45.6455 6.7306 11.5705 N.2 0 **** 0.856
8043 O1 48.7383 8.2517 13.1474 O.2 0 **** -0.428
8044 O2 49.2455 9.2014 11.2783 O.2 0 **** -0.428
8045 O3 44.5482 6.4937 11.1166 O.2 0 **** -0.428
8046 O4 45.9737 7.7596 12.1198 O.2 0 **** -0.428
8047 H 47.9636 6.1399 13.019 H 0 **** 0.053
8048 H 48.6066 5.0308 11.8309 H 0 **** 0.053
8049 H 49.8887 7.2444 9.60877 H 0 **** 0.053
8050 H 48.2593 7.8267 9.33982 H 0 **** 0.053
8051 C1 47.1357 5.513 8.75767 C.3 0 **** 0.268
8052 C2 46.2924 4.4321 10.8614 C.3 0 **** 0.268
8053 N1 46.2389 3.1949 8.74618 N.2 0 **** 0.856
8054 N2 46.4972 4.3826 9.42594 N.2 0 **** -0.374
8055 N3 48.5098 5.7152 9.23848 N.2 0 **** -0.374
8056 N4 49.4778 4.7214 9.1217 N.2 0 **** 0.856
8057 O1 46.385 3.2003 7.54481 O.2 0 **** -0.428
8058 O2 45.8778 2.2506 9.41388 O.2 0 **** -0.428
8059 O3 50.5751 4.9583 9.5756 O.2 0 **** -0.428
8060 O4 49.1497 3.6923 8.57242 O.2 0 **** -0.428
8061 H 47.1598 5.312 7.67323 H 0 **** 0.053
8062 H 46.5168 6.4211 8.86134 H 0 **** 0.053
8063 H 45.2346 4.2076 11.0834 H 0 **** 0.053
8064 H 46.864 3.6253 11.3524 H 0 **** 0.053
8065 C1 51.9062 1.0363 17.9594 C.3 0 **** 0.268
8066 C2 52.7495 2.1172 15.8557 C.3 0 **** 0.268
8067 N1 52.8031 3.3543 17.9709 N.2 0 **** 0.856
8068 N2 52.5448 2.1667 17.2911 N.2 0 **** -0.374
8069 N3 50.5322 0.8341 17.4786 N.2 0 **** -0.374
8070 N4 49.5641 1.8279 17.5953 N.2 0 **** 0.856
8071 O1 52.6569 3.349 19.1722 O.2 0 **** -0.428
8072 O2 53.1641 4.2987 17.3032 O.2 0 **** -0.428
8073 O3 48.4668 1.591 17.1414 O.2 0 **** -0.428
8074 O4 49.8923 2.8569 18.1446 O.2 0 **** -0.428
8075 H 51.8822 1.2373 19.0438 H 0 **** 0.053
8076 H 52.5252 0.1282 17.8557 H 0 **** 0.053
8077 H 53.8073 2.3417 15.6336 H 0 **** 0.053
8078 H 52.1779 2.924 15.3646 H 0 **** 0.053
8079 C1 51.0543 0.6103 14.7825 C.3 0 **** 0.268
8080 C2 50.211 -0.4706 16.8862 C.3 0 **** 0.268
8081 N1 50.1575 -1.7077 14.771 N.2 0 **** 0.856
8082 N2 50.4158 -0.52 15.4507 N.2 0 **** -0.374
8083 N3 52.4284 0.8125 15.2633 N.2 0 **** -0.374
8084 N4 53.3964 -0.1813 15.1465 N.2 0 **** 0.856
8085 O1 50.3036 -1.7024 13.5696 O.2 0 **** -0.428
8086 O2 49.7965 -2.6521 15.4387 O.2 0 **** -0.428
8087 O3 54.4937 0.0556 15.6004 O.2 0 **** -0.428
8088 O4 53.0683 -1.2103 14.5972 O.2 0 **** -0.428
8089 H 51.0784 0.4093 13.698 H 0 **** 0.053
8090 H 50.4354 1.5185 14.8861 H 0 **** 0.053
8091 H 49.1532 -0.6951 17.1083 H 0 **** 0.053
8092 H 50.7826 -1.2774 17.3772 H 0 **** 0.053
8093 C1 55.8248 35.3737 23.9842 C.3 0 **** 0.268
8094 C2 56.6681 36.4546 21.8805 C.3 0 **** 0.268
8095 N1 56.7217 37.6917 23.9957 N.2 0 **** 0.856
8096 N2 56.4634 36.504 23.3159 N.2 0 **** -0.374
8097 N3 54.4508 35.1715 23.5034 N.2 0 **** -0.374
8098 N4 53.4827 36.1653 23.6201 N.2 0 **** 0.856
8099 O1 56.5755 37.6863 25.197 O.2 0 **** -0.428
8100 O2 57.0827 38.636 23.328 O.2 0 **** -0.428
8101 O3 52.3854 35.9283 23.1662 O.2 0 **** -0.428
8102 O4 53.8109 37.1943 24.1694 O.2 0 **** -0.428
8103 H 55.8008 35.5746 25.0686 H 0 **** 0.053
8104 H 56.4438 34.4655 23.8805 H 0 **** 0.053
8105 H 57.7259 36.679 21.6584 H 0 **** 0.053
8106 H 56.0965 37.2613 21.3894 H 0 **** 0.053
8107 C1 54.9729 34.9476 20.8073 C.3 0 **** 0.268
8108 C2 54.1296 33.8667 22.911 C.3 0 **** 0.268
8109 N1 54.0761 32.6296 20.7958 N.2 0 **** 0.856
8110 N2 54.3344 33.8173 21.4756 N.2 0 **** -0.374
8111 N3 56.347 35.1498 21.2881 N.2 0 **** -0.374
8112 N4 57.315 34.156 21.1713 N.2 0 **** 0.856
8113 O1 54.2222 32.635 19.5944 O.2 0 **** -0.428
8114 O2 53.7151 31.6853 21.4635 O.2 0 **** -0.428
8115 O3 58.4123 34.393 21.6252 O.2 0 **** -0.428
8116 O4 56.9869 33.127 20.622 O.2 0 **** -0.428
8117 H 54.997 34.7467 19.7228 H 0 **** 0.053
8118 H 54.354 35.8558 20.911 H 0 **** 0.053
8119 H 53.0718 33.6423 23.1331 H 0 **** 0.053
8120 H 54.7012 33.0599 23.402 H 0 **** 0.053
8121 C1 59.7435 30.471 30.009 C.3 0 **** 0.268
8122 C2 60.5867 31.5519 27.9053 C.3 0 **** 0.268
8123 N1 60.6403 32.789 30.0205 N.2 0 **** 0.856
8124 N2 60.382 31.6013 29.3407 N.2 0 **** -0.374
8125 N3 58.3694 30.2688 29.5282 N.2 0 **** -0.374
8126 N4 57.4014 31.2626 29.6449 N.2 0 **** 0.856
8127 O1 60.4941 32.7836 31.2218 O.2 0 **** -0.428
8128 O2 61.0013 33.7333 29.3528 O.2 0 **** -0.428
8129 O3 56.304 31.0256 29.191 O.2 0 **** -0.428
8130 O4 57.7295 32.2916 30.1942 O.2 0 **** -0.428
8131 H 59.7194 30.6719 31.0934 H 0 **** 0.053
8132 H 60.3624 29.5628 29.9053 H 0 **** 0.053
8133 H 61.6445 31.7763 27.6832 H 0 **** 0.053
8134 H 60.0151 32.3587 27.4142 H 0 **** 0.053
8135 C1 58.8915 30.0449 26.8321 C.3 0 **** 0.268
8136 C2 58.0482 28.964 28.9358 C.3 0 **** 0.268
8137 N1 57.9947 27.7269 26.8206 N.2 0 **** 0.856
8138 N2 58.253 28.9146 27.5004 N.2 0 **** -0.374
8139 N3 60.2656 30.2471 27.3129 N.2 0 **** -0.374
8140 N4 61.2336 29.2533 27.1961 N.2 0 **** 0.856
8141 O1 58.1409 27.7323 25.6192 O.2 0 **** -0.428
8142 O2 57.6337 26.7826 27.4883 O.2 0 **** -0.428
8143 O3 62.3309 29.4903 27.65 O.2 0 **** -0.428
8144 O4 60.9055 28.2243 26.6468 O.2 0 **** -0.428
8145 H 58.9156 29.844 25.7477 H 0 **** 0.053
8146 H 58.2726 30.9531 26.9358 H 0 **** 0.053
8147 H 56.9904 28.7396 29.1579 H 0 **** 0.053
8148 H 58.6198 28.1572 29.4268 H 0 **** 0.053
8149 C1 42.6432 1.0363 23.9842 C.3 0 **** 0.268
8150 C2 43.4865 2.1172 21.8805 C.3 0 **** 0.268
8151 N1 43.54 3.3543 23.9957 N.2 0 **** 0.856
8152 N2 43.2817 2.1667 23.3159 N.2 0 **** -0.374
8153 N3 41.2691 0.8341 23.5034 N.2 0 **** -0.374
8154 N4 40.3011 1.8279 23.6201 N.2 0 **** 0.856
8155 O1 43.3938 3.349 25.197 O.2 0 **** -0.428
8156 O2 43.901 4.2987 23.328 O.2 0 **** -0.428
8157 O3 39.2038 1.591 23.1662 O.2 0 **** -0.428
8158 O4 40.6292 2.8569 24.1694 O.2 0 **** -0.428
8159 H 42.6191 1.2373 25.0686 H 0 **** 0.053
8160 H 43.2621 0.1282 23.8805 H 0 **** 0.053
8161 H 44.5443 2.3417 21.6584 H 0 **** 0.053
8162 H 42.9149 2.924 21.3894 H 0 **** 0.053
8163 C1 41.7913 0.6103 20.8073 C.3 0 **** 0.268
8164 C2 40.948 -0.4706 22.911 C.3 0 **** 0.268
8165 N1 40.8944 -1.7077 20.7958 N.2 0 **** 0.856
8166 N2 41.1527 -0.52 21.4756 N.2 0 **** -0.374
8167 N3 43.1653 0.8125 21.2881 N.2 0 **** -0.374
8168 N4 44.1333 -0.1813 21.1713 N.2 0 **** 0.856
8169 O1 41.0406 -1.7024 19.5944 O.2 0 **** -0.428
8170 O2 40.5334 -2.6521 21.4635 O.2 0 **** -0.428
8171 O3 45.2307 0.0556 21.6252 O.2 0 **** -0.428
8172 O4 43.8052 -1.2103 20.622 O.2 0 **** -0.428
8173 H 41.8153 0.4093 19.7228 H 0 **** 0.053
8174 H 41.1723 1.5185 20.911 H 0 **** 0.053
8175 H 39.8902 -0.6951 23.1331 H 0 **** 0.053
8176 H 41.5196 -1.2774 23.402 H 0 **** 0.053
8177 C1 46.5618 35.3737 30.009 C.3 0 **** 0.268
8178 C2 47.4051 36.4546 27.9053 C.3 0 **** 0.268
8179 N1 47.4586 37.6917 30.0205 N.2 0 **** 0.856
8180 N2 47.2003 36.504 29.3407 N.2 0 **** -0.374
8181 N3 45.1877 35.1715 29.5282 N.2 0 **** -0.374
8182 N4 44.2197 36.1653 29.6449 N.2 0 **** 0.856
8183 O1 47.3125 37.6863 31.2218 O.2 0 **** -0.428
8184 O2 47.8196 38.636 29.3528 O.2 0 **** -0.428
8185 O3 43.1224 35.9283 29.191 O.2 0 **** -0.428
8186 O4 44.5478 37.1943 30.1942 O.2 0 **** -0.428
8187 H 46.5377 35.5746 31.0934 H 0 **** 0.053
8188 H 47.1807 34.4655 29.9053 H 0 **** 0.053
8189 H 48.4629 36.679 27.6832 H 0 **** 0.053
8190 H 46.8335 37.2613 27.4142 H 0 **** 0.053
8191 C1 45.7099 34.9476 26.8321 C.3 0 **** 0.268
8192 C2 44.8666 33.8667 28.9358 C.3 0 **** 0.268
8193 N1 44.813 32.6296 26.8206 N.2 0 **** 0.856
8194 N2 45.0713 33.8173 27.5004 N.2 0 **** -0.374
8195 N3 47.0839 35.1498 27.3129 N.2 0 **** -0.374
8196 N4 48.052 34.156 27.1961 N.2 0 **** 0.856
8197 O1 44.9592 32.635 25.6192 O.2 0 **** -0.428
8198 O2 44.452 31.6853 27.4883 O.2 0 **** -0.428
8199 O3 49.1493 34.393 27.65 O.2 0 **** -0.428
8200 O4 47.7238 33.127 26.6468 O.2 0 **** -0.428
8201 H 45.7339 34.7467 25.7477 H 0 **** 0.053
8202 H 45.0909 35.8558 26.9358 H 0 **** 0.053
8203 H 43.8088 33.6423 29.1579 H 0 **** 0.053
8204 H 45.4382 33.0599 29.4268 H 0 **** 0.053
8205 C1 33.3801 1.0363 30.009 C.3 0 **** 0.268
8206 C2 34.2234 2.1172 27.9053 C.3 0 **** 0.268
8207 N1 34.2769 3.3543 30.0205 N.2 0 **** 0.856
8208 N2 34.0186 2.1667 29.3407 N.2 0 **** -0.374
8209 N3 32.0061 0.8341 29.5282 N.2 0 **** -0.374
8210 N4 31.038 1.8279 29.6449 N.2 0 **** 0.856
8211 O1 34.1308 3.349 31.2218 O.2 0 **** -0.428
8212 O2 34.638 4.2987 29.3528 O.2 0 **** -0.428
8213 O3 29.9407 1.591 29.191 O.2 0 **** -0.428
8214 O4 31.3661 2.8569 30.1942 O.2 0 **** -0.428
8215 H 33.3561 1.2373 31.0934 H 0 **** 0.053
8216 H 33.9991 0.1282 29.9053 H 0 **** 0.053
8217 H 35.2812 2.3417 27.6832 H 0 **** 0.053
8218 H 33.6518 2.924 27.4142 H 0 **** 0.053
8219 C1 32.5282 0.6103 26.8321 C.3 0 **** 0.268
8220 C2 31.6849 -0.4706 28.9358 C.3 0 **** 0.268
8221 N1 31.6314 -1.7077 26.8206 N.2 0 **** 0.856
8222 N2 31.8897 -0.52 27.5004 N.2 0 **** -0.374
8223 N3 33.9023 0.8125 27.3129 N.2 0 **** -0.374
8224 N4 34.8703 -0.1813 27.1961 N.2 0 **** 0.856
8225 O1 31.7775 -1.7024 25.6192 O.2 0 **** -0.428
8226 O2 31.2703 -2.6521 27.4883 O.2 0 **** -0.428
8227 O3 35.9676 0.0556 27.65 O.2 0 **** -0.428
8228 O4 34.5422 -1.2103 26.6468 O.2 0 **** -0.428
8229 H 32.5523 0.4093 25.7477 H 0 **** 0.053
8230 H 31.9093 1.5185 26.9358 H 0 **** 0.053
8231 H 30.6271 -0.6951 29.1579 H 0 **** 0.053
8232 H 32.2565 -1.2774 29.4268 H 0 **** 0.053
8233 C1 61.1693 7.5763 11.9346 C.3 0 **** 0.268
8234 C2 62.0126 8.6572 9.83085 C.3 0 **** 0.268
8235 N1 62.0661 9.8943 11.946 N.2 0 **** 0.856
8236 N2 61.8078 8.7067 11.2663 N.2 0 **** -0.374
8237 N3 59.7952 7.3741 11.4537 N.2 0 **** -0.374
8238 N4 58.8272 8.3679 11.5705 N.2 0 **** 0.856
8239 O1 61.92 9.889 13.1474 O.2 0 **** -0.428
8240 O2 62.4272 10.8387 11.2783 O.2 0 **** -0.428
8241 O3 57.7299 8.131 11.1166 O.2 0 **** -0.428
8242 O4 59.1553 9.3969 12.1198 O.2 0 **** -0.428
8243 H 61.1452 7.7773 13.019 H 0 **** 0.053
8244 H 61.7882 6.6682 11.8309 H 0 **** 0.053
8245 H 63.0704 8.8817 9.60877 H 0 **** 0.053
8246 H 61.441 9.464 9.33982 H 0 **** 0.053
8247 C1 60.3174 7.1503 8.75767 C.3 0 **** 0.268
8248 C2 59.4741 6.0694 10.8614 C.3 0 **** 0.268
8249 N1 59.4205 4.8323 8.74618 N.2 0 **** 0.856
8250 N2 59.6788 6.02 9.42594 N.2 0 **** -0.374
8251 N3 61.6914 7.3525 9.23848 N.2 0 **** -0.374
8252 N4 62.6595 6.3587 9.1217 N.2 0 **** 0.856
8253 O1 59.5667 4.8376 7.54481 O.2 0 **** -0.428
8254 O2 59.0595 3.8879 9.41388 O.2 0 **** -0.428
8255 O3 63.7568 6.5956 9.5756 O.2 0 **** -0.428
8256 O4 62.3313 5.3297 8.57242 O.2 0 **** -0.428
8257 H 60.3414 6.9493 7.67323 H 0 **** 0.053
8258 H 59.6984 8.0585 8.86134 H 0 **** 0.053
8259 H 58.4163 5.8449 11.0834 H 0 **** 0.053
8260 H 60.0457 5.2626 11.3524 H 0 **** 0.053
8261 C1 65.0879 2.6737 17.9594 C.3 0 **** 0.268
8262 C2 65.9312 3.7546 15.8557 C.3 0 **** 0.268
8263 N1 65.9847 4.9917 17.9709 N.2 0 **** 0.856
8264 N2 65.7264 3.804 17.2911 N.2 0 **** -0.374
8265 N3 63.7138 2.4715 17.4786 N.2 0 **** -0.374
8266 N4 62.7458 3.4653 17.5953 N.2 0 **** 0.856
8267 O1 65.8386 4.9863 19.1722 O.2 0 **** -0.428
8268 O2 66.3458 5.936 17.3032 O.2 0 **** -0.428
8269 O3 61.6485 3.2283 17.1414 O.2 0 **** -0.428
8270 O4 63.0739 4.4943 18.1446 O.2 0 **** -0.428
8271 H 65.0638 2.8746 19.0438 H 0 **** 0.053
8272 H 65.7068 1.7655 17.8557 H 0 **** 0.053
8273 H 66.989 3.979 15.6336 H 0 **** 0.053
8274 H 65.3596 4.5613 15.3646 H 0 **** 0.053
8275 C1 64.236 2.2476 14.7825 C.3 0 **** 0.268
8276 C2 63.3927 1.1667 16.8862 C.3 0 **** 0.268
8277 N1 63.3392 -0.0704 14.771 N.2 0 **** 0.856
8278 N2 63.5975 1.1173 15.4507 N.2 0 **** -0.374
8279 N3 65.61 2.4498 15.2633 N.2 0 **** -0.374
8280 N4 66.5781 1.456 15.1465 N.2 0 **** 0.856
8281 O1 63.4853 -0.065 13.5696 O.2 0 **** -0.428
8282 O2 62.9781 -1.0147 15.4387 O.2 0 **** -0.428
8283 O3 67.6754 1.693 15.6004 O.2 0 **** -0.428
8284 O4 66.2499 0.427 14.5972 O.2 0 **** -0.428
8285 H 64.26 2.0467 13.698 H 0 **** 0.053
8286 H 63.617 3.1558 14.8861 H 0 **** 0.053
8287 H 62.3349 0.9423 17.1083 H 0 **** 0.053
8288 H 63.9643 0.3599 17.3772 H 0 **** 0.053
8289 C1 55.8248 2.6737 23.9842 C.3 0 **** 0.268
8290 C2 56.6681 3.7546 21.8805 C.3 0 **** 0.268
8291 N1 56.7217 4.9917 23.9957 N.2 0 **** 0.856
8292 N2 56.4634 3.804 23.3159 N.2 0 **** -0.374
8293 N3 54.4508 2.4715 23.5034 N.2 0 **** -0.374
8294 N4 53.4827 3.4653 23.6201 N.2 0 **** 0.856
8295 O1 56.5755 4.9863 25.197 O.2 0 **** -0.428
8296 O2 57.0827 5.936 23.328 O.2 0 **** -0.428
8297 O3 52.3854 3.2283 23.1662 O.2 0 **** -0.428
8298 O4 53.8109 4.4943 24.1694 O.2 0 **** -0.428
8299 H 55.8008 2.8746 25.0686 H 0 **** 0.053
8300 H 56.4438 1.7655 23.8805 H 0 **** 0.053
8301 H 57.7259 3.979 21.6584 H 0 **** 0.053
8302 H 56.0965 4.5613 21.3894 H 0 **** 0.053
8303 C1 54.9729 2.2476 20.8073 C.3 0 **** 0.268
8304 C2 54.1296 1.1667 22.911 C.3 0 **** 0.268
8305 N1 54.0761 -0.0704 20.7958 N.2 0 **** 0.856
8306 N2 54.3344 1.1173 21.4756 N.2 0 **** -0.374
8307 N3 56.347 2.4498 21.2881 N.2 0 **** -0.374
8308 N4 57.315 1.456 21.1713 N.2 0 **** 0.856
8309 O1 54.2222 -0.065 19.5944 O.2 0 **** -0.428
8310 O2 53.7151 -1.0147 21.4635 O.2 0 **** -0.428
8311 O3 58.4123 1.693 21.6252 O.2 0 **** -0.428
8312 O4 56.9869 0.427 20.622 O.2 0 **** -0.428
8313 H 54.997 2.0467 19.7228 H 0 **** 0.053
8314 H 54.354 3.1558 20.911 H 0 **** 0.053
8315 H 53.0718 0.9423 23.1331 H 0 **** 0.053
8316 H 54.7012 0.3599 23.402 H 0 **** 0.053
8317 C1 59.7435 37.011 30.009 C.3 0 **** 0.268
8318 C2 60.5867 38.0919 27.9053 C.3 0 **** 0.268
8319 N1 60.6403 39.329 30.0205 N.2 0 **** 0.856
8320 N2 60.382 38.1413 29.3407 N.2 0 **** -0.374
8321 N3 58.3694 36.8088 29.5282 N.2 0 **** -0.374
8322 N4 57.4014 37.8026 29.6449 N.2 0 **** 0.856
8323 O1 60.4941 39.3236 31.2218 O.2 0 **** -0.428
8324 O2 61.0013 40.2733 29.3528 O.2 0 **** -0.428
8325 O3 56.304 37.5656 29.191 O.2 0 **** -0.428
8326 O4 57.7295 38.8316 30.1942 O.2 0 **** -0.428
8327 H 59.7194 37.2119 31.0934 H 0 **** 0.053
8328 H 60.3624 36.1028 29.9053 H 0 **** 0.053
8329 H 61.6445 38.3163 27.6832 H 0 **** 0.053
8330 H 60.0151 38.8987 27.4142 H 0 **** 0.053
8331 C1 58.8915 36.5849 26.8321 C.3 0 **** 0.268
8332 C2 58.0482 35.504 28.9358 C.3 0 **** 0.268
8333 N1 57.9947 34.2669 26.8206 N.2 0 **** 0.856
8334 N2 58.253 35.4546 27.5004 N.2 0 **** -0.374
8335 N3 60.2656 36.7871 27.3129 N.2 0 **** -0.374
8336 N4 61.2336 35.7933 27.1961 N.2 0 **** 0.856
8337 O1 58.1409 34.2723 25.6192 O.2 0 **** -0.428
8338 O2 57.6337 33.3226 27.4883 O.2 0 **** -0.428
8339 O3 62.3309 36.0303 27.65 O.2 0 **** -0.428
8340 O4 60.9055 34.7643 26.6468 O.2 0 **** -0.428
8341 H 58.9156 36.384 25.7477 H 0 **** 0.053
8342 H 58.2726 37.4931 26.9358 H 0 **** 0.053
8343 H 56.9904 35.2796 29.1579 H 0 **** 0.053
8344 H 58.6198 34.6972 29.4268 H 0 **** 0.053
8345 C1 46.5618 2.6737 30.009 C.3 0 **** 0.268
8346 C2 47.4051 3.7546 27.9053 C.3 0 **** 0.268
8347 N1 47.4586 4.9917 30.0205 N.2 0 **** 0.856
8348 N2 47.2003 3.804 29.3407 N.2 0 **** -0.374
8349 N3 45.1877 2.4715 29.5282 N.2 0 **** -0.374
8350 N4 44.2197 3.4653 29.6449 N.2 0 **** 0.856
8351 O1 47.3125 4.9863 31.2218 O.2 0 **** -0.428
8352 O2 47.8196 5.936 29.3528 O.2 0 **** -0.428
8353 O3 43.1224 3.2283 29.191 O.2 0 **** -0.428
8354 O4 44.5478 4.4943 30.1942 O.2 0 **** -0.428
8355 H 46.5377 2.8746 31.0934 H 0 **** 0.053
8356 H 47.1807 1.7655 29.9053 H 0 **** 0.053
8357 H 48.4629 3.979 27.6832 H 0 **** 0.053
8358 H 46.8335 4.5613 27.4142 H 0 **** 0.053
8359 C1 45.7099 2.2476 26.8321 C.3 0 **** 0.268
8360 C2 44.8666 1.1667 28.9358 C.3 0 **** 0.268
8361 N1 44.813 -0.0704 26.8206 N.2 0 **** 0.856
8362 N2 45.0713 1.1173 27.5004 N.2 0 **** -0.374
8363 N3 47.0839 2.4498 27.3129 N.2 0 **** -0.374
8364 N4 48.052 1.456 27.1961 N.2 0 **** 0.856
8365 O1 44.9592 -0.065 25.6192 O.2 0 **** -0.428
8366 O2 44.452 -1.0147 27.4883 O.2 0 **** -0.428
8367 O3 49.1493 1.693 27.65 O.2 0 **** -0.428
8368 O4 47.7238 0.427 26.6468 O.2 0 **** -0.428
8369 H 45.7339 2.0467 25.7477 H 0 **** 0.053
8370 H 45.0909 3.1558 26.9358 H 0 **** 0.053
8371 H 43.8088 0.9423 29.1579 H 0 **** 0.053
8372 H 45.4382 0.3599 29.4268 H 0 **** 0.053
8373 C1 59.7435 4.311 30.009 C.3 0 **** 0.268
8374 C2 60.5867 5.3919 27.9053 C.3 0 **** 0.268
8375 N1 60.6403 6.629 30.0205 N.2 0 **** 0.856
8376 N2 60.382 5.4413 29.3407 N.2 0 **** -0.374
8377 N3 58.3694 4.1088 29.5282 N.2 0 **** -0.374
8378 N4 57.4014 5.1026 29.6449 N.2 0 **** 0.856
8379 O1 60.4941 6.6236 31.2218 O.2 0 **** -0.428
8380 O2 61.0013 7.5733 29.3528 O.2 0 **** -0.428
8381 O3 56.304 4.8656 29.191 O.2 0 **** -0.428
8382 O4 57.7295 6.1316 30.1942 O.2 0 **** -0.428
8383 H 59.7194 4.5119 31.0934 H 0 **** 0.053
8384 H 60.3624 3.4028 29.9053 H 0 **** 0.053
8385 H 61.6445 5.6163 27.6832 H 0 **** 0.053
8386 H 60.0151 6.1987 27.4142 H 0 **** 0.053
8387 C1 58.8915 3.8849 26.8321 C.3 0 **** 0.268
8388 C2 58.0482 2.804 28.9358 C.3 0 **** 0.268
8389 N1 57.9947 1.5669 26.8206 N.2 0 **** 0.856
8390 N2 58.253 2.7546 27.5004 N.2 0 **** -0.374
8391 N3 60.2656 4.0871 27.3129 N.2 0 **** -0.374
8392 N4 61.2336 3.0933 27.1961 N.2 0 **** 0.856
8393 O1 58.1409 1.5723 25.6192 O.2 0 **** -0.428
8394 O2 57.6337 0.6226 27.4883 O.2 0 **** -0.428
8395 O3 62.3309 3.3303 27.65 O.2 0 **** -0.428
8396 O4 60.9055 2.0643 26.6468 O.2 0 **** -0.428
8397 H 58.9156 3.684 25.7477 H 0 **** 0.053
8398 H 58.2726 4.7931 26.9358 H 0 **** 0.053
8399 H 56.9904 2.5796 29.1579 H 0 **** 0.053
8400 H 58.6198 1.9972 29.4268 H 0 **** 0.053
@<TRIPOS>BOND
1 1 4 1
2 5 1 1
3 1 11 1
4 1 12 1
5 2 4 1
6 19 2 1
7 2 13 1
8 2 14 1
9 3 4 1
10 7 3 1
11 8 3 2
12 6 5 1
13 5 16 1
14 9 6 1
15 10 6 2
16 15 18 1
17 19 15 1
18 15 25 1
19 15 26 1
20 16 18 1
21 16 27 1
22 16 28 1
23 17 18 1
24 21 17 1
25 22 17 2
26 20 19 1
27 23 20 1
28 24 20 2
29 29 32 1
30 33 29 1
31 29 39 1
32 29 40 1
33 30 32 1
34 47 30 1
35 30 41 1
36 30 42 1
37 31 32 1
38 35 31 1
39 36 31 2
40 34 33 1
41 33 44 1
42 37 34 1
43 38 34 2
44 43 46 1
45 47 43 1
46 43 53 1
47 43 54 1
48 44 46 1
49 44 55 1
50 44 56 1
51 45 46 1
52 49 45 1
53 50 45 2
54 48 47 1
55 51 48 1
56 52 48 2
57 57 60 1
58 61 57 1
59 57 67 1
60 57 68 1
61 58 60 1
62 75 58 1
63 58 69 1
64 58 70 1
65 59 60 1
66 63 59 1
67 64 59 2
68 62 61 1
69 61 72 1
70 65 62 1
71 66 62 2
72 71 74 1
73 75 71 1
74 71 81 1
75 71 82 1
76 72 74 1
77 72 83 1
78 72 84 1
79 73 74 1
80 77 73 1
81 78 73 2
82 76 75 1
83 79 76 1
84 80 76 2
85 85 88 1
86 89 85 1
87 85 95 1
88 85 96 1
89 86 88 1
90 103 86 1
91 86 97 1
92 86 98 1
93 87 88 1
94 91 87 1
95 92 87 2
96 90 89 1
97 89 100 1
98 93 90 1
99 94 90 2
100 99 102 1
101 103 99 1
102 99 109 1
103 99 110 1
104 100 102 1
105 100 111 1
106 100 112 1
107 101 102 1
108 105 101 1
109 106 101 2
110 104 103 1
111 107 104 1
112 108 104 2
113 113 116 1
114 117 113 1
115 113 123 1
116 113 124 1
117 114 116 1
118 131 114 1
119 114 125 1
120 114 126 1
121 115 116 1
122 119 115 1
123 120 115 2
124 118 117 1
125 117 128 1
126 121 118 1
127 122 118 2
128 127 130 1
129 131 127 1
130 127 137 1
131 127 138 1
132 128 130 1
133 128 139 1
134 128 140 1
135 129 130 1
136 133 129 1
137 134 129 2
138 132 131 1
139 135 132 1
140 136 132 2
141 141 144 1
142 145 141 1
143 141 151 1
144 141 152 1
145 142 144 1
146 159 142 1
147 142 153 1
148 142 154 1
149 143 144 1
150 147 143 1
151 148 143 2
152 146 145 1
153 145 156 1
154 149 146 1
155 150 146 2
156 155 158 1
157 159 155 1
158 155 165 1
159 155 166 1
160 156 158 1
161 156 167 1
162 156 168 1
163 157 158 1
164 161 157 1
165 162 157 2
166 160 159 1
167 163 160 1
168 164 160 2
169 169 172 1
170 173 169 1
171 169 179 1
172 169 180 1
173 170 172 1
174 187 170 1
175 170 181 1
176 170 182 1
177 171 172 1
178 175 171 1
179 176 171 2
180 174 173 1
181 173 184 1
182 177 174 1
183 178 174 2
184 183 186 1
185 187 183 1
186 183 193 1
187 183 194 1
188 184 186 1
189 184 195 1
190 184 196 1
191 185 186 1
192 189 185 1
193 190 185 2
194 188 187 1
195 191 188 1
196 192 188 2
197 197 200 1
198 201 197 1
199 197 207 1
200 197 208 1
201 198 200 1
202 215 198 1
203 198 209 1
204 198 210 1
205 199 200 1
206 203 199 1
207 204 199 2
208 202 201 1
209 201 212 1
210 205 202 1
211 206 202 2
212 211 214 1
213 215 211 1
214 211 221 1
215 211 222 1
216 212 214 1
217 212 223 1
218 212 224 1
219 213 214 1
220 217 213 1
221 218 213 2
222 216 215 1
223 219 216 1
224 220 216 2
225 225 228 1
226 229 225 1
227 225 235 1
228 225 236 1
229 226 228 1
230 243 226 1
231 226 237 1
232 226 238 1
233 227 228 1
234 231 227 1
235 232 227 2
236 230 229 1
237 229 240 1
238 233 230 1
239 234 230 2
240 239 242 1
241 243 239 1
242 239 249 1
243 239 250 1
244 240 242 1
245 240 251 1
246 240 252 1
247 241 242 1
248 245 241 1
249 246 241 2
250 244 243 1
251 247 244 1
252 248 244 2
253 253 256 1
254 257 253 1
255 253 263 1
256 253 264 1
257 254 256 1
258 271 254 1
259 254 265 1
260 254 266 1
261 255 256 1
262 259 255 1
263 260 255 2
264 258 257 1
265 257 268 1
266 261 258 1
267 262 258 2
268 267 270 1
269 271 267 1
270 267 277 1
271 267 278 1
272 268 270 1
273 268 279 1
274 268 280 1
275 269 270 1
276 273 269 1
277 274 269 2
278 272 271 1
279 275 272 1
280 276 272 2
281 281 284 1
282 285 281 1
283 281 291 1
284 281 292 1
285 282 284 1
286 299 282 1
287 282 293 1
288 282 294 1
289 283 284 1
290 287 283 1
291 288 283 2
292 286 285 1
293 285 296 1
294 289 286 1
295 290 286 2
296 295 298 1
297 299 295 1
298 295 305 1
299 295 306 1
300 296 298 1
301 296 307 1
302 296 308 1
303 297 298 1
304 301 297 1
305 302 297 2
306 300 299 1
307 303 300 1
308 304 300 2
309 309 312 1
310 313 309 1
311 309 319 1
312 309 320 1
313 310 312 1
314 327 310 1
315 310 321 1
316 310 322 1
317 311 312 1
318 315 311 1
319 316 311 2
320 314 313 1
321 313 324 1
322 317 314 1
323 318 314 2
324 323 326 1
325 327 323 1
326 323 333 1
327 323 334 1
328 324 326 1
329 324 335 1
330 324 336 1
331 325 326 1
332 329 325 1
333 330 325 2
334 328 327 1
335 331 328 1
336 332 328 2
337 337 340 1
338 341 337 1
339 337 347 1
340 337 348 1
341 338 340 1
342 355 338 1
343 338 349 1
344 338 350 1
345 339 340 1
346 343 339 1
347 344 339 2
348 342 341 1
349 341 352 1
350 345 342 1
351 346 342 2
352 351 354 1
353 355 351 1
354 351 361 1
355 351 362 1
356 352 354 1
357 352 363 1
358 352 364 1
359 353 354 1
360 357 353 1
361 358 353 2
362 356 355 1
363 359 356 1
364 360 356 2
365 365 368 1
366 369 365 1
367 365 375 1
368 365 376 1
369 366 368 1
370 383 366 1
371 366 377 1
372 366 378 1
373 367 368 1
374 371 367 1
375 372 367 2
376 370 369 1
377 369 380 1
378 373 370 1
379 374 370 2
380 379 382 1
381 383 379 1
382 379 389 1
383 379 390 1
384 380 382 1
385 380 391 1
386 380 392 1
387 381 382 1
388 385 381 1
389 386 381 2
390 384 383 1
391 387 384 1
392 388 384 2
393 393 396 1
394 397 393 1
395 393 403 1
396 393 404 1
397 394 396 1
398 411 394 1
399 394 405 1
400 394 406 1
401 395 396 1
402 399 395 1
403 400 395 2
404 398 397 1
405 397 408 1
406 401 398 1
407 402 398 2
408 407 410 1
409 411 407 1
410 407 417 1
411 407 418 1
412 408 410 1
413 408 419 1
414 408 420 1
415 409 410 1
416 413 409 1
417 414 409 2
418 412 411 1
419 415 412 1
420 416 412 2
421 421 424 1
422 425 421 1
423 421 431 1
424 421 432 1
425 422 424 1
426 439 422 1
427 422 433 1
428 422 434 1
429 423 424 1
430 427 423 1
431 428 423 2
432 426 425 1
433 425 436 1
434 429 426 1
435 430 426 2
436 435 438 1
437 439 435 1
438 435 445 1
439 435 446 1
440 436 438 1
441 436 447 1
442 436 448 1
443 437 438 1
444 441 437 1
445 442 437 2
446 440 439 1
447 443 440 1
448 444 440 2
449 449 452 1
450 453 449 1
451 449 459 1
452 449 460 1
453 450 452 1
454 467 450 1
455 450 461 1
456 450 462 1
457 451 452 1
458 455 451 1
459 456 451 2
460 454 453 1
461 453 464 1
462 457 454 1
463 458 454 2
464 463 466 1
465 467 463 1
466 463 473 1
467 463 474 1
468 464 466 1
469 464 475 1
470 464 476 1
471 465 466 1
472 469 465 1
473 470 465 2
474 468 467 1
475 471 468 1
476 472 468 2
477 477 480 1
478 481 477 1
479 477 487 1
480 477 488 1
481 478 480 1
482 495 478 1
483 478 489 1
484 478 490 1
485 479 480 1
486 483 479 1
487 484 479 2
488 482 481 1
489 481 492 1
490 485 482 1
491 486 482 2
492 491 494 1
493 495 491 1
494 491 501 1
495 491 502 1
496 492 494 1
497 492 503 1
498 492 504 1
499 493 494 1
500 497 493 1
501 498 493 2
502 496 495 1
503 499 496 1
504 500 496 2
505 505 508 1
506 509 505 1
507 505 515 1
508 505 516 1
509 506 508 1
510 523 506 1
511 506 517 1
512 506 518 1
513 507 508 1
514 511 507 1
515 512 507 2
516 510 509 1
517 509 520 1
518 513 510 1
519 514 510 2
520 519 522 1
521 523 519 1
522 519 529 1
523 519 530 1
524 520 522 1
525 520 531 1
526 520 532 1
527 521 522 1
528 525 521 1
529 526 521 2
530 524 523 1
531 527 524 1
532 528 524 2
533 533 536 1
534 537 533 1
535 533 543 1
536 533 544 1
537 534 536 1
538 551 534 1
539 534 545 1
540 534 546 1
541 535 536 1
542 539 535 1
543 540 535 2
544 538 537 1
545 537 548 1
546 541 538 1
547 542 538 2
548 547 550 1
549 551 547 1
550 547 557 1
551 547 558 1
552 548 550 1
553 548 559 1
554 548 560 1
555 549 550 1
556 553 549 1
557 554 549 2
558 552 551 1
559 555 552 1
560 556 552 2
561 561 564 1
562 565 561 1
563 561 571 1
564 561 572 1
565 562 564 1
566 579 562 1
567 562 573 1
568 562 574 1
569 563 564 1
570 567 563 1
571 568 563 2
572 566 565 1
573 565 576 1
574 569 566 1
575 570 566 2
576 575 578 1
577 579 575 1
578 575 585 1
579 575 586 1
580 576 578 1
581 576 587 1
582 576 588 1
583 577 578 1
584 581 577 1
585 582 577 2
586 580 579 1
587 583 580 1
588 584 580 2
589 589 592 1
590 593 589 1
591 589 599 1
592 589 600 1
593 590 592 1
594 607 590 1
595 590 601 1
596 590 602 1
597 591 592 1
598 595 591 1
599 596 591 2
600 594 593 1
601 593 604 1
602 597 594 1
603 598 594 2
604 603 606 1
605 607 603 1
606 603 613 1
607 603 614 1
608 604 606 1
609 604 615 1
610 604 616 1
611 605 606 1
612 609 605 1
613 610 605 2
614 608 607 1
615 611 608 1
616 612 608 2
617 617 620 1
618 621 617 1
619 617 627 1
620 617 628 1
621 618 620 1
622 635 618 1
623 618 629 1
624 618 630 1
625 619 620 1
626 623 619 1
627 624 619 2
628 622 621 1
629 621 632 1
630 625 622 1
631 626 622 2
632 631 634 1
633 635 631 1
634 631 641 1
635 631 642 1
636 632 634 1
637 632 643 1
638 632 644 1
639 633 634 1
640 637 633 1
641 638 633 2
642 636 635 1
643 639 636 1
644 640 636 2
645 645 648 1
646 649 645 1
647 645 655 1
648 645 656 1
649 646 648 1
650 663 646 1
651 646 657 1
652 646 658 1
653 647 648 1
654 651 647 1
655 652 647 2
656 650 649 1
657 649 660 1
658 653 650 1
659 654 650 2
660 659 662 1
661 663 659 1
662 659 669 1
663 659 670 1
664 660 662 1
665 660 671 1
666 660 672 1
667 661 662 1
668 665 661 1
669 666 661 2
670 664 663 1
671 667 664 1
672 668 664 2
673 673 676 1
674 677 673 1
675 673 683 1
676 673 684 1
677 674 676 1
678 691 674 1
679 674 685 1
680 674 686 1
681 675 676 1
682 679 675 1
683 680 675 2
684 678 677 1
685 677 688 1
686 681 678 1
687 682 678 2
688 687 690 1
689 691 687 1
690 687 697 1
691 687 698 1
692 688 690 1
693 688 699 1
694 688 700 1
695 689 690 1
696 693 689 1
697 694 689 2
698 692 691 1
699 695 692 1
700 696 692 2
701 701 704 1
702 705 701 1
703 701 711 1
704 701 712 1
705 702 704 1
706 719 702 1
707 702 713 1
708 702 714 1
709 703 704 1
710 707 703 1
711 708 703 2
712 706 705 1
713 705 716 1
714 709 706 1
715 710 706 2
716 715 718 1
717 719 715 1
718 715 725 1
719 715 726 1
720 716 718 1
721 716 727 1
722 716 728 1
723 717 718 1
724 721 717 1
725 722 717 2
726 720 719 1
727 723 720 1
728 724 720 2
729 729 732 1
730 733 729 1
731 729 739 1
732 729 740 1
733 730 732 1
734 747 730 1
735 730 741 1
736 730 742 1
737 731 732 1
738 735 731 1
739 736 731 2
740 734 733 1
741 733 744 1
742 737 734 1
743 738 734 2
744 743 746 1
745 747 743 1
746 743 753 1
747 743 754 1
748 744 746 1
749 744 755 1
750 744 756 1
751 745 746 1
752 749 745 1
753 750 745 2
754 748 747 1
755 751 748 1
756 752 748 2
757 757 760 1
758 761 757 1
759 757 767 1
760 757 768 1
761 758 760 1
762 775 758 1
763 758 769 1
764 758 770 1
765 759 760 1
766 763 759 1
767 764 759 2
768 762 761 1
769 761 772 1
770 765 762 1
771 766 762 2
772 771 774 1
773 775 771 1
774 771 781 1
775 771 782 1
776 772 774 1
777 772 783 1
778 772 784 1
779 773 774 1
780 777 773 1
781 778 773 2
782 776 775 1
783 779 776 1
784 780 776 2
785 785 788 1
786 789 785 1
787 785 795 1
788 785 796 1
789 786 788 1
790 803 786 1
791 786 797 1
792 786 798 1
793 787 788 1
794 791 787 1
795 792 787 2
796 790 789 1
797 789 800 1
798 793 790 1
799 794 790 2
800 799 802 1
801 803 799 1
802 799 809 1
803 799 810 1
804 800 802 1
805 800 811 1
806 800 812 1
807 801 802 1
808 805 801 1
809 806 801 2
810 804 803 1
811 807 804 1
812 808 804 2
813 813 816 1
814 817 813 1
815 813 823 1
816 813 824 1
817 814 816 1
818 831 814 1
819 814 825 1
820 814 826 1
821 815 816 1
822 819 815 1
823 820 815 2
824 818 817 1
825 817 828 1
826 821 818 1
827 822 818 2
828 827 830 1
829 831 827 1
830 827 837 1
831 827 838 1
832 828 830 1
833 828 839 1
834 828 840 1
835 829 830 1
836 833 829 1
837 834 829 2
838 832 831 1
839 835 832 1
840 836 832 2
841 841 844 1
842 845 841 1
843 841 851 1
844 841 852 1
845 842 844 1
846 859 842 1
847 842 853 1
848 842 854 1
849 843 844 1
850 847 843 1
851 848 843 2
852 846 845 1
853 845 856 1
854 849 846 1
855 850 846 2
856 855 858 1
857 859 855 1
858 855 865 1
859 855 866 1
860 856 858 1
861 856 867 1
862 856 868 1
863 857 858 1
864 861 857 1
865 862 857 2
866 860 859 1
867 863 860 1
868 864 860 2
869 869 872 1
870 873 869 1
871 869 879 1
872 869 880 1
873 870 872 1
874 887 870 1
875 870 881 1
876 870 882 1
877 871 872 1
878 875 871 1
879 876 871 2
880 874 873 1
881 873 884 1
882 877 874 1
883 878 874 2
884 883 886 1
885 887 883 1
886 883 893 1
887 883 894 1
888 884 886 1
889 884 895 1
890 884 896 1
891 885 886 1
892 889 885 1
893 890 885 2
894 888 887 1
895 891 888 1
896 892 888 2
897 897 900 1
898 901 897 1
899 897 907 1
900 897 908 1
901 898 900 1
902 915 898 1
903 898 909 1
904 898 910 1
905 899 900 1
906 903 899 1
907 904 899 2
908 902 901 1
909 901 912 1
910 905 902 1
911 906 902 2
912 911 914 1
913 915 911 1
914 911 921 1
915 911 922 1
916 912 914 1
917 912 923 1
918 912 924 1
919 913 914 1
920 917 913 1
921 918 913 2
922 916 915 1
923 919 916 1
924 920 916 2
925 925 928 1
926 929 925 1
927 925 935 1
928 925 936 1
929 926 928 1
930 943 926 1
931 926 937 1
932 926 938 1
933 927 928 1
934 931 927 1
935 932 927 2
936 930 929 1
937 929 940 1
938 933 930 1
939 934 930 2
940 939 942 1
941 943 939 1
942 939 949 1
943 939 950 1
944 940 942 1
945 940 951 1
946 940 952 1
947 941 942 1
948 945 941 1
949 946 941 2
950 944 943 1
951 947 944 1
952 948 944 2
953 953 956 1
954 957 953 1
955 953 963 1
956 953 964 1
957 954 956 1
958 971 954 1
959 954 965 1
960 954 966 1
961 955 956 1
962 959 955 1
963 960 955 2
964 958 957 1
965 957 968 1
966 961 958 1
967 962 958 2
968 967 970 1
969 971 967 1
970 967 977 1
971 967 978 1
972 968 970 1
973 968 979 1
974 968 980 1
975 969 970 1
976 973 969 1
977 974 969 2
978 972 971 1
979 975 972 1
980 976 972 2
981 981 984 1
982 985 981 1
983 981 991 1
984 981 992 1
985 982 984 1
986 999 982 1
987 982 993 1
988 982 994 1
989 983 984 1
990 987 983 1
991 988 983 2
992 986 985 1
993 985 996 1
994 989 986 1
995 990 986 2
996 995 998 1
997 999 995 1
998 995 1005 1
999 995 1006 1
1000 996 998 1
1001 996 1007 1
1002 996 1008 1
1003 997 998 1
1004 1001 997 1
1005 1002 997 2
1006 1000 999 1
1007 1003 1000 1
1008 1004 1000 2
1009 1009 1012 1
1010 1013 1009 1
1011 1009 1019 1
1012 1009 1020 1
1013 1010 1012 1
1014 1027 1010 1
1015 1010 1021 1
1016 1010 1022 1
1017 1011 1012 1
1018 1015 1011 1
1019 1016 1011 2
1020 1014 1013 1
1021 1013 1024 1
1022 1017 1014 1
1023 1018 1014 2
1024 1023 1026 1
1025 1027 1023 1
1026 1023 1033 1
1027 1023 1034 1
1028 1024 1026 1
1029 1024 1035 1
1030 1024 1036 1
1031 1025 1026 1
1032 1029 1025 1
1033 1030 1025 2
1034 1028 1027 1
1035 1031 1028 1
1036 1032 1028 2
1037 1037 1040 1
1038 1041 1037 1
1039 1037 1047 1
1040 1037 1048 1
1041 1038 1040 1
1042 1055 1038 1
1043 1038 1049 1
1044 1038 1050 1
1045 1039 1040 1
1046 1043 1039 1
1047 1044 1039 2
1048 1042 1041 1
1049 1041 1052 1
1050 1045 1042 1
1051 1046 1042 2
1052 1051 1054 1
1053 1055 1051 1
1054 1051 1061 1
1055 1051 1062 1
1056 1052 1054 1
1057 1052 1063 1
1058 1052 1064 1
1059 1053 1054 1
1060 1057 1053 1
1061 1058 1053 2
1062 1056 1055 1
1063 1059 1056 1
1064 1060 1056 2
1065 1065 1068 1
1066 1069 1065 1
1067 1065 1075 1
1068 1065 1076 1
1069 1066 1068 1
1070 1083 1066 1
1071 1066 1077 1
1072 1066 1078 1
1073 1067 1068 1
1074 1071 1067 1
1075 1072 1067 2
1076 1070 1069 1
1077 1069 1080 1
1078 1073 1070 1
1079 1074 1070 2
1080 1079 1082 1
1081 1083 1079 1
1082 1079 1089 1
1083 1079 1090 1
1084 1080 1082 1
1085 1080 1091 1
1086 1080 1092 1
1087 1081 1082 1
1088 1085 1081 1
1089 1086 1081 2
1090 1084 1083 1
1091 1087 1084 1
1092 1088 1084 2
1093 1093 1096 1
1094 1097 1093 1
1095 1093 1103 1
1096 1093 1104 1
1097 1094 1096 1
1098 1111 1094 1
1099 1094 1105 1
1100 1094 1106 1
1101 1095 1096 1
1102 1099 1095 1
1103 1100 1095 2
1104 1098 1097 1
1105 1097 1108 1
1106 1101 1098 1
1107 1102 1098 2
1108 1107 1110 1
1109 1111 1107 1
1110 1107 1117 1
1111 1107 1118 1
1112 1108 1110 1
1113 1108 1119 1
1114 1108 1120 1
1115 1109 1110 1
1116 1113 1109 1
1117 1114 1109 2
1118 1112 1111 1
1119 1115 1112 1
1120 1116 1112 2
1121 1121 1124 1
1122 1125 1121 1
1123 1121 1131 1
1124 1121 1132 1
1125 1122 1124 1
1126 1139 1122 1
1127 1122 1133 1
1128 1122 1134 1
1129 1123 1124 1
1130 1127 1123 1
1131 1128 1123 2
1132 1126 1125 1
1133 1125 1136 1
1134 1129 1126 1
1135 1130 1126 2
1136 1135 1138 1
1137 1139 1135 1
1138 1135 1145 1
1139 1135 1146 1
1140 1136 1138 1
1141 1136 1147 1
1142 1136 1148 1
1143 1137 1138 1
1144 1141 1137 1
1145 1142 1137 2
1146 1140 1139 1
1147 1143 1140 1
1148 1144 1140 2
1149 1149 1152 1
1150 1153 1149 1
1151 1149 1159 1
1152 1149 1160 1
1153 1150 1152 1
1154 1167 1150 1
1155 1150 1161 1
1156 1150 1162 1
1157 1151 1152 1
1158 1155 1151 1
1159 1156 1151 2
1160 1154 1153 1
1161 1153 1164 1
1162 1157 1154 1
1163 1158 1154 2
1164 1163 1166 1
1165 1167 1163 1
1166 1163 1173 1
1167 1163 1174 1
1168 1164 1166 1
1169 1164 1175 1
1170 1164 1176 1
1171 1165 1166 1
1172 1169 1165 1
1173 1170 1165 2
1174 1168 1167 1
1175 1171 1168 1
1176 1172 1168 2
1177 1177 1180 1
1178 1181 1177 1
1179 1177 1187 1
1180 1177 1188 1
1181 1178 1180 1
1182 1195 1178 1
1183 1178 1189 1
1184 1178 1190 1
1185 1179 1180 1
1186 1183 1179 1
1187 1184 1179 2
1188 1182 1181 1
1189 1181 1192 1
1190 1185 1182 1
1191 1186 1182 2
1192 1191 1194 1
1193 1195 1191 1
1194 1191 1201 1
1195 1191 1202 1
1196 1192 1194 1
1197 1192 1203 1
1198 1192 1204 1
1199 1193 1194 1
1200 1197 1193 1
1201 1198 1193 2
1202 1196 1195 1
1203 1199 1196 1
1204 1200 1196 2
1205 1205 1208 1
1206 1209 1205 1
1207 1205 1215 1
1208 1205 1216 1
1209 1206 1208 1
1210 1223 1206 1
1211 1206 1217 1
1212 1206 1218 1
1213 1207 1208 1
1214 1211 1207 1
1215 1212 1207 2
1216 1210 1209 1
1217 1209 1220 1
1218 1213 1210 1
1219 1214 1210 2
1220 1219 1222 1
1221 1223 1219 1
1222 1219 1229 1
1223 1219 1230 1
1224 1220 1222 1
1225 1220 1231 1
1226 1220 1232 1
1227 1221 1222 1
1228 1225 1221 1
1229 1226 1221 2
1230 1224 1223 1
1231 1227 1224 1
1232 1228 1224 2
1233 1233 1236 1
1234 1237 1233 1
1235 1233 1243 1
1236 1233 1244 1
1237 1234 1236 1
1238 1251 1234 1
1239 1234 1245 1
1240 1234 1246 1
1241 1235 1236 1
1242 1239 1235 1
1243 1240 1235 2
1244 1238 1237 1
1245 1237 1248 1
1246 1241 1238 1
1247 1242 1238 2
1248 1247 1250 1
1249 1251 1247 1
1250 1247 1257 1
1251 1247 1258 1
1252 1248 1250 1
1253 1248 1259 1
1254 1248 1260 1
1255 1249 1250 1
1256 1253 1249 1
1257 1254 1249 2
1258 1252 1251 1
1259 1255 1252 1
1260 1256 1252 2
1261 1261 1264 1
1262 1265 1261 1
1263 1261 1271 1
1264 1261 1272 1
1265 1262 1264 1
1266 1279 1262 1
1267 1262 1273 1
1268 1262 1274 1
1269 1263 1264 1
1270 1267 1263 1
1271 1268 1263 2
1272 1266 1265 1
1273 1265 1276 1
1274 1269 1266 1
1275 1270 1266 2
1276 1275 1278 1
1277 1279 1275 1
1278 1275 1285 1
1279 1275 1286 1
1280 1276 1278 1
1281 1276 1287 1
1282 1276 1288 1
1283 1277 1278 1
1284 1281 1277 1
1285 1282 1277 2
1286 1280 1279 1
1287 1283 1280 1
1288 1284 1280 2
1289 1289 1292 1
1290 1293 1289 1
1291 1289 1299 1
1292 1289 1300 1
1293 1290 1292 1
1294 1307 1290 1
1295 1290 1301 1
1296 1290 1302 1
1297 1291 1292 1
1298 1295 1291 1
1299 1296 1291 2
1300 1294 1293 1
1301 1293 1304 1
1302 1297 1294 1
1303 1298 1294 2
1304 1303 1306 1
1305 1307 1303 1
1306 1303 1313 1
1307 1303 1314 1
1308 1304 1306 1
1309 1304 1315 1
1310 1304 1316 1
1311 1305 1306 1
1312 1309 1305 1
1313 1310 1305 2
1314 1308 1307 1
1315 1311 1308 1
1316 1312 1308 2
1317 1317 1320 1
1318 1321 1317 1
1319 1317 1327 1
1320 1317 1328 1
1321 1318 1320 1
1322 1335 1318 1
1323 1318 1329 1
1324 1318 1330 1
1325 1319 1320 1
1326 1323 1319 1
1327 1324 1319 2
1328 1322 1321 1
1329 1321 1332 1
1330 1325 1322 1
1331 1326 1322 2
1332 1331 1334 1
1333 1335 1331 1
1334 1331 1341 1
1335 1331 1342 1
1336 1332 1334 1
1337 1332 1343 1
1338 1332 1344 1
1339 1333 1334 1
1340 1337 1333 1
1341 1338 1333 2
1342 1336 1335 1
1343 1339 1336 1
1344 1340 1336 2
1345 1345 1348 1
1346 1349 1345 1
1347 1345 1355 1
1348 1345 1356 1
1349 1346 1348 1
1350 1363 1346 1
1351 1346 1357 1
1352 1346 1358 1
1353 1347 1348 1
1354 1351 1347 1
1355 1352 1347 2
1356 1350 1349 1
1357 1349 1360 1
1358 1353 1350 1
1359 1354 1350 2
1360 1359 1362 1
1361 1363 1359 1
1362 1359 1369 1
1363 1359 1370 1
1364 1360 1362 1
1365 1360 1371 1
1366 1360 1372 1
1367 1361 1362 1
1368 1365 1361 1
1369 1366 1361 2
1370 1364 1363 1
1371 1367 1364 1
1372 1368 1364 2
1373 1373 1376 1
1374 1377 1373 1
1375 1373 1383 1
1376 1373 1384 1
1377 1374 1376 1
1378 1391 1374 1
1379 1374 1385 1
1380 1374 1386 1
1381 1375 1376 1
1382 1379 1375 1
1383 1380 1375 2
1384 1378 1377 1
1385 1377 1388 1
1386 1381 1378 1
1387 1382 1378 2
1388 1387 1390 1
1389 1391 1387 1
1390 1387 1397 1
1391 1387 1398 1
1392 1388 1390 1
1393 1388 1399 1
1394 1388 1400 1
1395 1389 1390 1
1396 1393 1389 1
1397 1394 1389 2
1398 1392 1391 1
1399 1395 1392 1
1400 1396 1392 2
1401 1401 1404 1
1402 1405 1401 1
1403 1401 1411 1
1404 1401 1412 1
1405 1402 1404 1
1406 1419 1402 1
1407 1402 1413 1
1408 1402 1414 1
1409 1403 1404 1
1410 1407 1403 1
1411 1408 1403 2
1412 1406 1405 1
1413 1405 1416 1
1414 1409 1406 1
1415 1410 1406 2
1416 1415 1418 1
1417 1419 1415 1
1418 1415 1425 1
1419 1415 1426 1
1420 1416 1418 1
1421 1416 1427 1
1422 1416 1428 1
1423 1417 1418 1
1424 1421 1417 1
1425 1422 1417 2
1426 1420 1419 1
1427 1423 1420 1
1428 1424 1420 2
1429 1429 1432 1
1430 1433 1429 1
1431 1429 1439 1
1432 1429 1440 1
1433 1430 1432 1
1434 1447 1430 1
1435 1430 1441 1
1436 1430 1442 1
1437 1431 1432 1
1438 1435 1431 1
1439 1436 1431 2
1440 1434 1433 1
1441 1433 1444 1
1442 1437 1434 1
1443 1438 1434 2
1444 1443 1446 1
1445 1447 1443 1
1446 1443 1453 1
1447 1443 1454 1
1448 1444 1446 1
1449 1444 1455 1
1450 1444 1456 1
1451 1445 1446 1
1452 1449 1445 1
1453 1450 1445 2
1454 1448 1447 1
1455 1451 1448 1
1456 1452 1448 2
1457 1457 1460 1
1458 1461 1457 1
1459 1457 1467 1
1460 1457 1468 1
1461 1458 1460 1
1462 1475 1458 1
1463 1458 1469 1
1464 1458 1470 1
1465 1459 1460 1
1466 1463 1459 1
1467 1464 1459 2
1468 1462 1461 1
1469 1461 1472 1
1470 1465 1462 1
1471 1466 1462 2
1472 1471 1474 1
1473 1475 1471 1
1474 1471 1481 1
1475 1471 1482 1
1476 1472 1474 1
1477 1472 1483 1
1478 1472 1484 1
1479 1473 1474 1
1480 1477 1473 1
1481 1478 1473 2
1482 1476 1475 1
1483 1479 1476 1
1484 1480 1476 2
1485 1485 1488 1
1486 1489 1485 1
1487 1485 1495 1
1488 1485 1496 1
1489 1486 1488 1
1490 1503 1486 1
1491 1486 1497 1
1492 1486 1498 1
1493 1487 1488 1
1494 1491 1487 1
1495 1492 1487 2
1496 1490 1489 1
1497 1489 1500 1
1498 1493 1490 1
1499 1494 1490 2
1500 1499 1502 1
1501 1503 1499 1
1502 1499 1509 1
1503 1499 1510 1
1504 1500 1502 1
1505 1500 1511 1
1506 1500 1512 1
1507 1501 1502 1
1508 1505 1501 1
1509 1506 1501 2
1510 1504 1503 1
1511 1507 1504 1
1512 1508 1504 2
1513 1513 1516 1
1514 1517 1513 1
1515 1513 1523 1
1516 1513 1524 1
1517 1514 1516 1
1518 1531 1514 1
1519 1514 1525 1
1520 1514 1526 1
1521 1515 1516 1
1522 1519 1515 1
1523 1520 1515 2
1524 1518 1517 1
1525 1517 1528 1
1526 1521 1518 1
1527 1522 1518 2
1528 1527 1530 1
1529 1531 1527 1
1530 1527 1537 1
1531 1527 1538 1
1532 1528 1530 1
1533 1528 1539 1
1534 1528 1540 1
1535 1529 1530 1
1536 1533 1529 1
1537 1534 1529 2
1538 1532 1531 1
1539 1535 1532 1
1540 1536 1532 2
1541 1541 1544 1
1542 1545 1541 1
1543 1541 1551 1
1544 1541 1552 1
1545 1542 1544 1
1546 1559 1542 1
1547 1542 1553 1
1548 1542 1554 1
1549 1543 1544 1
1550 1547 1543 1
1551 1548 1543 2
1552 1546 1545 1
1553 1545 1556 1
1554 1549 1546 1
1555 1550 1546 2
1556 1555 1558 1
1557 1559 1555 1
1558 1555 1565 1
1559 1555 1566 1
1560 1556 1558 1
1561 1556 1567 1
1562 1556 1568 1
1563 1557 1558 1
1564 1561 1557 1
1565 1562 1557 2
1566 1560 1559 1
1567 1563 1560 1
1568 1564 1560 2
1569 1569 1572 1
1570 1573 1569 1
1571 1569 1579 1
1572 1569 1580 1
1573 1570 1572 1
1574 1587 1570 1
1575 1570 1581 1
1576 1570 1582 1
1577 1571 1572 1
1578 1575 1571 1
1579 1576 1571 2
1580 1574 1573 1
1581 1573 1584 1
1582 1577 1574 1
1583 1578 1574 2
1584 1583 1586 1
1585 1587 1583 1
1586 1583 1593 1
1587 1583 1594 1
1588 1584 1586 1
1589 1584 1595 1
1590 1584 1596 1
1591 1585 1586 1
1592 1589 1585 1
1593 1590 1585 2
1594 1588 1587 1
1595 1591 1588 1
1596 1592 1588 2
1597 1597 1600 1
1598 1601 1597 1
1599 1597 1607 1
1600 1597 1608 1
1601 1598 1600 1
1602 1615 1598 1
1603 1598 1609 1
1604 1598 1610 1
1605 1599 1600 1
1606 1603 1599 1
1607 1604 1599 2
1608 1602 1601 1
1609 1601 1612 1
1610 1605 1602 1
1611 1606 1602 2
1612 1611 1614 1
1613 1615 1611 1
1614 1611 1621 1
1615 1611 1622 1
1616 1612 1614 1
1617 1612 1623 1
1618 1612 1624 1
1619 1613 1614 1
1620 1617 1613 1
1621 1618 1613 2
1622 1616 1615 1
1623 1619 1616 1
1624 1620 1616 2
1625 1625 1628 1
1626 1629 1625 1
1627 1625 1635 1
1628 1625 1636 1
1629 1626 1628 1
1630 1643 1626 1
1631 1626 1637 1
1632 1626 1638 1
1633 1627 1628 1
1634 1631 1627 1
1635 1632 1627 2
1636 1630 1629 1
1637 1629 1640 1
1638 1633 1630 1
1639 1634 1630 2
1640 1639 1642 1
1641 1643 1639 1
1642 1639 1649 1
1643 1639 1650 1
1644 1640 1642 1
1645 1640 1651 1
1646 1640 1652 1
1647 1641 1642 1
1648 1645 1641 1
1649 1646 1641 2
1650 1644 1643 1
1651 1647 1644 1
1652 1648 1644 2
1653 1653 1656 1
1654 1657 1653 1
1655 1653 1663 1
1656 1653 1664 1
1657 1654 1656 1
1658 1671 1654 1
1659 1654 1665 1
1660 1654 1666 1
1661 1655 1656 1
1662 1659 1655 1
1663 1660 1655 2
1664 1658 1657 1
1665 1657 1668 1
1666 1661 1658 1
1667 1662 1658 2
1668 1667 1670 1
1669 1671 1667 1
1670 1667 1677 1
1671 1667 1678 1
1672 1668 1670 1
1673 1668 1679 1
1674 1668 1680 1
1675 1669 1670 1
1676 1673 1669 1
1677 1674 1669 2
1678 1672 1671 1
1679 1675 1672 1
1680 1676 1672 2
1681 1681 1684 1
1682 1685 1681 1
1683 1681 1691 1
1684 1681 1692 1
1685 1682 1684 1
1686 1699 1682 1
1687 1682 1693 1
1688 1682 1694 1
1689 1683 1684 1
1690 1687 1683 1
1691 1688 1683 2
1692 1686 1685 1
1693 1685 1696 1
1694 1689 1686 1
1695 1690 1686 2
1696 1695 1698 1
1697 1699 1695 1
1698 1695 1705 1
1699 1695 1706 1
1700 1696 1698 1
1701 1696 1707 1
1702 1696 1708 1
1703 1697 1698 1
1704 1701 1697 1
1705 1702 1697 2
1706 1700 1699 1
1707 1703 1700 1
1708 1704 1700 2
1709 1709 1712 1
1710 1713 1709 1
1711 1709 1719 1
1712 1709 1720 1
1713 1710 1712 1
1714 1727 1710 1
1715 1710 1721 1
1716 1710 1722 1
1717 1711 1712 1
1718 1715 1711 1
1719 1716 1711 2
1720 1714 1713 1
1721 1713 1724 1
1722 1717 1714 1
1723 1718 1714 2
1724 1723 1726 1
1725 1727 1723 1
1726 1723 1733 1
1727 1723 1734 1
1728 1724 1726 1
1729 1724 1735 1
1730 1724 1736 1
1731 1725 1726 1
1732 1729 1725 1
1733 1730 1725 2
1734 1728 1727 1
1735 1731 1728 1
1736 1732 1728 2
1737 1737 1740 1
1738 1741 1737 1
1739 1737 1747 1
1740 1737 1748 1
1741 1738 1740 1
1742 1755 1738 1
1743 1738 1749 1
1744 1738 1750 1
1745 1739 1740 1
1746 1743 1739 1
1747 1744 1739 2
1748 1742 1741 1
1749 1741 1752 1
1750 1745 1742 1
1751 1746 1742 2
1752 1751 1754 1
1753 1755 1751 1
1754 1751 1761 1
1755 1751 1762 1
1756 1752 1754 1
1757 1752 1763 1
1758 1752 1764 1
1759 1753 1754 1
1760 1757 1753 1
1761 1758 1753 2
1762 1756 1755 1
1763 1759 1756 1
1764 1760 1756 2
1765 1765 1768 1
1766 1769 1765 1
1767 1765 1775 1
1768 1765 1776 1
1769 1766 1768 1
1770 1783 1766 1
1771 1766 1777 1
1772 1766 1778 1
1773 1767 1768 1
1774 1771 1767 1
1775 1772 1767 2
1776 1770 1769 1
1777 1769 1780 1
1778 1773 1770 1
1779 1774 1770 2
1780 1779 1782 1
1781 1783 1779 1
1782 1779 1789 1
1783 1779 1790 1
1784 1780 1782 1
1785 1780 1791 1
1786 1780 1792 1
1787 1781 1782 1
1788 1785 1781 1
1789 1786 1781 2
1790 1784 1783 1
1791 1787 1784 1
1792 1788 1784 2
1793 1793 1796 1
1794 1797 1793 1
1795 1793 1803 1
1796 1793 1804 1
1797 1794 1796 1
1798 1811 1794 1
1799 1794 1805 1
1800 1794 1806 1
1801 1795 1796 1
1802 1799 1795 1
1803 1800 1795 2
1804 1798 1797 1
1805 1797 1808 1
1806 1801 1798 1
1807 1802 1798 2
1808 1807 1810 1
1809 1811 1807 1
1810 1807 1817 1
1811 1807 1818 1
1812 1808 1810 1
1813 1808 1819 1
1814 1808 1820 1
1815 1809 1810 1
1816 1813 1809 1
1817 1814 1809 2
1818 1812 1811 1
1819 1815 1812 1
1820 1816 1812 2
1821 1821 1824 1
1822 1825 1821 1
1823 1821 1831 1
1824 1821 1832 1
1825 1822 1824 1
1826 1839 1822 1
1827 1822 1833 1
1828 1822 1834 1
1829 1823 1824 1
1830 1827 1823 1
1831 1828 1823 2
1832 1826 1825 1
1833 1825 1836 1
1834 1829 1826 1
1835 1830 1826 2
1836 1835 1838 1
1837 1839 1835 1
1838 1835 1845 1
1839 1835 1846 1
1840 1836 1838 1
1841 1836 1847 1
1842 1836 1848 1
1843 1837 1838 1
1844 1841 1837 1
1845 1842 1837 2
1846 1840 1839 1
1847 1843 1840 1
1848 1844 1840 2
1849 1849 1852 1
1850 1853 1849 1
1851 1849 1859 1
1852 1849 1860 1
1853 1850 1852 1
1854 1867 1850 1
1855 1850 1861 1
1856 1850 1862 1
1857 1851 1852 1
1858 1855 1851 1
1859 1856 1851 2
1860 1854 1853 1
1861 1853 1864 1
1862 1857 1854 1
1863 1858 1854 2
1864 1863 1866 1
1865 1867 1863 1
1866 1863 1873 1
1867 1863 1874 1
1868 1864 1866 1
1869 1864 1875 1
1870 1864 1876 1
1871 1865 1866 1
1872 1869 1865 1
1873 1870 1865 2
1874 1868 1867 1
1875 1871 1868 1
1876 1872 1868 2
1877 1877 1880 1
1878 1881 1877 1
1879 1877 1887 1
1880 1877 1888 1
1881 1878 1880 1
1882 1895 1878 1
1883 1878 1889 1
1884 1878 1890 1
1885 1879 1880 1
1886 1883 1879 1
1887 1884 1879 2
1888 1882 1881 1
1889 1881 1892 1
1890 1885 1882 1
1891 1886 1882 2
1892 1891 1894 1
1893 1895 1891 1
1894 1891 1901 1
1895 1891 1902 1
1896 1892 1894 1
1897 1892 1903 1
1898 1892 1904 1
1899 1893 1894 1
1900 1897 1893 1
1901 1898 1893 2
1902 1896 1895 1
1903 1899 1896 1
1904 1900 1896 2
1905 1905 1908 1
1906 1909 1905 1
1907 1905 1915 1
1908 1905 1916 1
1909 1906 1908 1
1910 1923 1906 1
1911 1906 1917 1
1912 1906 1918 1
1913 1907 1908 1
1914 1911 1907 1
1915 1912 1907 2
1916 1910 1909 1
1917 1909 1920 1
1918 1913 1910 1
1919 1914 1910 2
1920 1919 1922 1
1921 1923 1919 1
1922 1919 1929 1
1923 1919 1930 1
1924 1920 1922 1
1925 1920 1931 1
1926 1920 1932 1
1927 1921 1922 1
1928 1925 1921 1
1929 1926 1921 2
1930 1924 1923 1
1931 1927 1924 1
1932 1928 1924 2
1933 1933 1936 1
1934 1937 1933 1
1935 1933 1943 1
1936 1933 1944 1
1937 1934 1936 1
1938 1951 1934 1
1939 1934 1945 1
1940 1934 1946 1
1941 1935 1936 1
1942 1939 1935 1
1943 1940 1935 2
1944 1938 1937 1
1945 1937 1948 1
1946 1941 1938 1
1947 1942 1938 2
1948 1947 1950 1
1949 1951 1947 1
1950 1947 1957 1
1951 1947 1958 1
1952 1948 1950 1
1953 1948 1959 1
1954 1948 1960 1
1955 1949 1950 1
1956 1953 1949 1
1957 1954 1949 2
1958 1952 1951 1
1959 1955 1952 1
1960 1956 1952 2
1961 1961 1964 1
1962 1965 1961 1
1963 1961 1971 1
1964 1961 1972 1
1965 1962 1964 1
1966 1979 1962 1
1967 1962 1973 1
1968 1962 1974 1
1969 1963 1964 1
1970 1967 1963 1
1971 1968 1963 2
1972 1966 1965 1
1973 1965 1976 1
1974 1969 1966 1
1975 1970 1966 2
1976 1975 1978 1
1977 1979 1975 1
1978 1975 1985 1
1979 1975 1986 1
1980 1976 1978 1
1981 1976 1987 1
1982 1976 1988 1
1983 1977 1978 1
1984 1981 1977 1
1985 1982 1977 2
1986 1980 1979 1
1987 1983 1980 1
1988 1984 1980 2
1989 1989 1992 1
1990 1993 1989 1
1991 1989 1999 1
1992 1989 2000 1
1993 1990 1992 1
1994 2007 1990 1
1995 1990 2001 1
1996 1990 2002 1
1997 1991 1992 1
1998 1995 1991 1
1999 1996 1991 2
2000 1994 1993 1
2001 1993 2004 1
2002 1997 1994 1
2003 1998 1994 2
2004 2003 2006 1
2005 2007 2003 1
2006 2003 2013 1
2007 2003 2014 1
2008 2004 2006 1
2009 2004 2015 1
2010 2004 2016 1
2011 2005 2006 1
2012 2009 2005 1
2013 2010 2005 2
2014 2008 2007 1
2015 2011 2008 1
2016 2012 2008 2
2017 2017 2020 1
2018 2021 2017 1
2019 2017 2027 1
2020 2017 2028 1
2021 2018 2020 1
2022 2035 2018 1
2023 2018 2029 1
2024 2018 2030 1
2025 2019 2020 1
2026 2023 2019 1
2027 2024 2019 2
2028 2022 2021 1
2029 2021 2032 1
2030 2025 2022 1
2031 2026 2022 2
2032 2031 2034 1
2033 2035 2031 1
2034 2031 2041 1
2035 2031 2042 1
2036 2032 2034 1
2037 2032 2043 1
2038 2032 2044 1
2039 2033 2034 1
2040 2037 2033 1
2041 2038 2033 2
2042 2036 2035 1
2043 2039 2036 1
2044 2040 2036 2
2045 2045 2048 1
2046 2049 2045 1
2047 2045 2055 1
2048 2045 2056 1
2049 2046 2048 1
2050 2063 2046 1
2051 2046 2057 1
2052 2046 2058 1
2053 2047 2048 1
2054 2051 2047 1
2055 2052 2047 2
2056 2050 2049 1
2057 2049 2060 1
2058 2053 2050 1
2059 2054 2050 2
2060 2059 2062 1
2061 2063 2059 1
2062 2059 2069 1
2063 2059 2070 1
2064 2060 2062 1
2065 2060 2071 1
2066 2060 2072 1
2067 2061 2062 1
2068 2065 2061 1
2069 2066 2061 2
2070 2064 2063 1
2071 2067 2064 1
2072 2068 2064 2
2073 2073 2076 1
2074 2077 2073 1
2075 2073 2083 1
2076 2073 2084 1
2077 2074 2076 1
2078 2091 2074 1
2079 2074 2085 1
2080 2074 2086 1
2081 2075 2076 1
2082 2079 2075 1
2083 2080 2075 2
2084 2078 2077 1
2085 2077 2088 1
2086 2081 2078 1
2087 2082 2078 2
2088 2087 2090 1
2089 2091 2087 1
2090 2087 2097 1
2091 2087 2098 1
2092 2088 2090 1
2093 2088 2099 1
2094 2088 2100 1
2095 2089 2090 1
2096 2093 2089 1
2097 2094 2089 2
2098 2092 2091 1
2099 2095 2092 1
2100 2096 2092 2
2101 2101 2104 1
2102 2105 2101 1
2103 2101 2111 1
2104 2101 2112 1
2105 2102 2104 1
2106 2119 2102 1
2107 2102 2113 1
2108 2102 2114 1
2109 2103 2104 1
2110 2107 2103 1
2111 2108 2103 2
2112 2106 2105 1
2113 2105 2116 1
2114 2109 2106 1
2115 2110 2106 2
2116 2115 2118 1
2117 2119 2115 1
2118 2115 2125 1
2119 2115 2126 1
2120 2116 2118 1
2121 2116 2127 1
2122 2116 2128 1
2123 2117 2118 1
2124 2121 2117 1
2125 2122 2117 2
2126 2120 2119 1
2127 2123 2120 1
2128 2124 2120 2
2129 2129 2132 1
2130 2133 2129 1
2131 2129 2139 1
2132 2129 2140 1
2133 2130 2132 1
2134 2147 2130 1
2135 2130 2141 1
2136 2130 2142 1
2137 2131 2132 1
2138 2135 2131 1
2139 2136 2131 2
2140 2134 2133 1
2141 2133 2144 1
2142 2137 2134 1
2143 2138 2134 2
2144 2143 2146 1
2145 2147 2143 1
2146 2143 2153 1
2147 2143 2154 1
2148 2144 2146 1
2149 2144 2155 1
2150 2144 2156 1
2151 2145 2146 1
2152 2149 2145 1
2153 2150 2145 2
2154 2148 2147 1
2155 2151 2148 1
2156 2152 2148 2
2157 2157 2160 1
2158 2161 2157 1
2159 2157 2167 1
2160 2157 2168 1
2161 2158 2160 1
2162 2175 2158 1
2163 2158 2169 1
2164 2158 2170 1
2165 2159 2160 1
2166 2163 2159 1
2167 2164 2159 2
2168 2162 2161 1
2169 2161 2172 1
2170 2165 2162 1
2171 2166 2162 2
2172 2171 2174 1
2173 2175 2171 1
2174 2171 2181 1
2175 2171 2182 1
2176 2172 2174 1
2177 2172 2183 1
2178 2172 2184 1
2179 2173 2174 1
2180 2177 2173 1
2181 2178 2173 2
2182 2176 2175 1
2183 2179 2176 1
2184 2180 2176 2
2185 2185 2188 1
2186 2189 2185 1
2187 2185 2195 1
2188 2185 2196 1
2189 2186 2188 1
2190 2203 2186 1
2191 2186 2197 1
2192 2186 2198 1
2193 2187 2188 1
2194 2191 2187 1
2195 2192 2187 2
2196 2190 2189 1
2197 2189 2200 1
2198 2193 2190 1
2199 2194 2190 2
2200 2199 2202 1
2201 2203 2199 1
2202 2199 2209 1
2203 2199 2210 1
2204 2200 2202 1
2205 2200 2211 1
2206 2200 2212 1
2207 2201 2202 1
2208 2205 2201 1
2209 2206 2201 2
2210 2204 2203 1
2211 2207 2204 1
2212 2208 2204 2
2213 2213 2216 1
2214 2217 2213 1
2215 2213 2223 1
2216 2213 2224 1
2217 2214 2216 1
2218 2231 2214 1
2219 2214 2225 1
2220 2214 2226 1
2221 2215 2216 1
2222 2219 2215 1
2223 2220 2215 2
2224 2218 2217 1
2225 2217 2228 1
2226 2221 2218 1
2227 2222 2218 2
2228 2227 2230 1
2229 2231 2227 1
2230 2227 2237 1
2231 2227 2238 1
2232 2228 2230 1
2233 2228 2239 1
2234 2228 2240 1
2235 2229 2230 1
2236 2233 2229 1
2237 2234 2229 2
2238 2232 2231 1
2239 2235 2232 1
2240 2236 2232 2
2241 2241 2244 1
2242 2245 2241 1
2243 2241 2251 1
2244 2241 2252 1
2245 2242 2244 1
2246 2259 2242 1
2247 2242 2253 1
2248 2242 2254 1
2249 2243 2244 1
2250 2247 2243 1
2251 2248 2243 2
2252 2246 2245 1
2253 2245 2256 1
2254 2249 2246 1
2255 2250 2246 2
2256 2255 2258 1
2257 2259 2255 1
2258 2255 2265 1
2259 2255 2266 1
2260 2256 2258 1
2261 2256 2267 1
2262 2256 2268 1
2263 2257 2258 1
2264 2261 2257 1
2265 2262 2257 2
2266 2260 2259 1
2267 2263 2260 1
2268 2264 2260 2
2269 2269 2272 1
2270 2273 2269 1
2271 2269 2279 1
2272 2269 2280 1
2273 2270 2272 1
2274 2287 2270 1
2275 2270 2281 1
2276 2270 2282 1
2277 2271 2272 1
2278 2275 2271 1
2279 2276 2271 2
2280 2274 2273 1
2281 2273 2284 1
2282 2277 2274 1
2283 2278 2274 2
2284 2283 2286 1
2285 2287 2283 1
2286 2283 2293 1
2287 2283 2294 1
2288 2284 2286 1
2289 2284 2295 1
2290 2284 2296 1
2291 2285 2286 1
2292 2289 2285 1
2293 2290 2285 2
2294 2288 2287 1
2295 2291 2288 1
2296 2292 2288 2
2297 2297 2300 1
2298 2301 2297 1
2299 2297 2307 1
2300 2297 2308 1
2301 2298 2300 1
2302 2315 2298 1
2303 2298 2309 1
2304 2298 2310 1
2305 2299 2300 1
2306 2303 2299 1
2307 2304 2299 2
2308 2302 2301 1
2309 2301 2312 1
2310 2305 2302 1
2311 2306 2302 2
2312 2311 2314 1
2313 2315 2311 1
2314 2311 2321 1
2315 2311 2322 1
2316 2312 2314 1
2317 2312 2323 1
2318 2312 2324 1
2319 2313 2314 1
2320 2317 2313 1
2321 2318 2313 2
2322 2316 2315 1
2323 2319 2316 1
2324 2320 2316 2
2325 2325 2328 1
2326 2329 2325 1
2327 2325 2335 1
2328 2325 2336 1
2329 2326 2328 1
2330 2343 2326 1
2331 2326 2337 1
2332 2326 2338 1
2333 2327 2328 1
2334 2331 2327 1
2335 2332 2327 2
2336 2330 2329 1
2337 2329 2340 1
2338 2333 2330 1
2339 2334 2330 2
2340 2339 2342 1
2341 2343 2339 1
2342 2339 2349 1
2343 2339 2350 1
2344 2340 2342 1
2345 2340 2351 1
2346 2340 2352 1
2347 2341 2342 1
2348 2345 2341 1
2349 2346 2341 2
2350 2344 2343 1
2351 2347 2344 1
2352 2348 2344 2
2353 2353 2356 1
2354 2357 2353 1
2355 2353 2363 1
2356 2353 2364 1
2357 2354 2356 1
2358 2371 2354 1
2359 2354 2365 1
2360 2354 2366 1
2361 2355 2356 1
2362 2359 2355 1
2363 2360 2355 2
2364 2358 2357 1
2365 2357 2368 1
2366 2361 2358 1
2367 2362 2358 2
2368 2367 2370 1
2369 2371 2367 1
2370 2367 2377 1
2371 2367 2378 1
2372 2368 2370 1
2373 2368 2379 1
2374 2368 2380 1
2375 2369 2370 1
2376 2373 2369 1
2377 2374 2369 2
2378 2372 2371 1
2379 2375 2372 1
2380 2376 2372 2
2381 2381 2384 1
2382 2385 2381 1
2383 2381 2391 1
2384 2381 2392 1
2385 2382 2384 1
2386 2399 2382 1
2387 2382 2393 1
2388 2382 2394 1
2389 2383 2384 1
2390 2387 2383 1
2391 2388 2383 2
2392 2386 2385 1
2393 2385 2396 1
2394 2389 2386 1
2395 2390 2386 2
2396 2395 2398 1
2397 2399 2395 1
2398 2395 2405 1
2399 2395 2406 1
2400 2396 2398 1
2401 2396 2407 1
2402 2396 2408 1
2403 2397 2398 1
2404 2401 2397 1
2405 2402 2397 2
2406 2400 2399 1
2407 2403 2400 1
2408 2404 2400 2
2409 2409 2412 1
2410 2413 2409 1
2411 2409 2419 1
2412 2409 2420 1
2413 2410 2412 1
2414 2427 2410 1
2415 2410 2421 1
2416 2410 2422 1
2417 2411 2412 1
2418 2415 2411 1
2419 2416 2411 2
2420 2414 2413 1
2421 2413 2424 1
2422 2417 2414 1
2423 2418 2414 2
2424 2423 2426 1
2425 2427 2423 1
2426 2423 2433 1
2427 2423 2434 1
2428 2424 2426 1
2429 2424 2435 1
2430 2424 2436 1
2431 2425 2426 1
2432 2429 2425 1
2433 2430 2425 2
2434 2428 2427 1
2435 2431 2428 1
2436 2432 2428 2
2437 2437 2440 1
2438 2441 2437 1
2439 2437 2447 1
2440 2437 2448 1
2441 2438 2440 1
2442 2455 2438 1
2443 2438 2449 1
2444 2438 2450 1
2445 2439 2440 1
2446 2443 2439 1
2447 2444 2439 2
2448 2442 2441 1
2449 2441 2452 1
2450 2445 2442 1
2451 2446 2442 2
2452 2451 2454 1
2453 2455 2451 1
2454 2451 2461 1
2455 2451 2462 1
2456 2452 2454 1
2457 2452 2463 1
2458 2452 2464 1
2459 2453 2454 1
2460 2457 2453 1
2461 2458 2453 2
2462 2456 2455 1
2463 2459 2456 1
2464 2460 2456 2
2465 2465 2468 1
2466 2469 2465 1
2467 2465 2475 1
2468 2465 2476 1
2469 2466 2468 1
2470 2483 2466 1
2471 2466 2477 1
2472 2466 2478 1
2473 2467 2468 1
2474 2471 2467 1
2475 2472 2467 2
2476 2470 2469 1
2477 2469 2480 1
2478 2473 2470 1
2479 2474 2470 2
2480 2479 2482 1
2481 2483 2479 1
2482 2479 2489 1
2483 2479 2490 1
2484 2480 2482 1
2485 2480 2491 1
2486 2480 2492 1
2487 2481 2482 1
2488 2485 2481 1
2489 2486 2481 2
2490 2484 2483 1
2491 2487 2484 1
2492 2488 2484 2
2493 2493 2496 1
2494 2497 2493 1
2495 2493 2503 1
2496 2493 2504 1
2497 2494 2496 1
2498 2511 2494 1
2499 2494 2505 1
2500 2494 2506 1
2501 2495 2496 1
2502 2499 2495 1
2503 2500 2495 2
2504 2498 2497 1
2505 2497 2508 1
2506 2501 2498 1
2507 2502 2498 2
2508 2507 2510 1
2509 2511 2507 1
2510 2507 2517 1
2511 2507 2518 1
2512 2508 2510 1
2513 2508 2519 1
2514 2508 2520 1
2515 2509 2510 1
2516 2513 2509 1
2517 2514 2509 2
2518 2512 2511 1
2519 2515 2512 1
2520 2516 2512 2
2521 2521 2524 1
2522 2525 2521 1
2523 2521 2531 1
2524 2521 2532 1
2525 2522 2524 1
2526 2539 2522 1
2527 2522 2533 1
2528 2522 2534 1
2529 2523 2524 1
2530 2527 2523 1
2531 2528 2523 2
2532 2526 2525 1
2533 2525 2536 1
2534 2529 2526 1
2535 2530 2526 2
2536 2535 2538 1
2537 2539 2535 1
2538 2535 2545 1
2539 2535 2546 1
2540 2536 2538 1
2541 2536 2547 1
2542 2536 2548 1
2543 2537 2538 1
2544 2541 2537 1
2545 2542 2537 2
2546 2540 2539 1
2547 2543 2540 1
2548 2544 2540 2
2549 2549 2552 1
2550 2553 2549 1
2551 2549 2559 1
2552 2549 2560 1
2553 2550 2552 1
2554 2567 2550 1
2555 2550 2561 1
2556 2550 2562 1
2557 2551 2552 1
2558 2555 2551 1
2559 2556 2551 2
2560 2554 2553 1
2561 2553 2564 1
2562 2557 2554 1
2563 2558 2554 2
2564 2563 2566 1
2565 2567 2563 1
2566 2563 2573 1
2567 2563 2574 1
2568 2564 2566 1
2569 2564 2575 1
2570 2564 2576 1
2571 2565 2566 1
2572 2569 2565 1
2573 2570 2565 2
2574 2568 2567 1
2575 2571 2568 1
2576 2572 2568 2
2577 2577 2580 1
2578 2581 2577 1
2579 2577 2587 1
2580 2577 2588 1
2581 2578 2580 1
2582 2595 2578 1
2583 2578 2589 1
2584 2578 2590 1
2585 2579 2580 1
2586 2583 2579 1
2587 2584 2579 2
2588 2582 2581 1
2589 2581 2592 1
2590 2585 2582 1
2591 2586 2582 2
2592 2591 2594 1
2593 2595 2591 1
2594 2591 2601 1
2595 2591 2602 1
2596 2592 2594 1
2597 2592 2603 1
2598 2592 2604 1
2599 2593 2594 1
2600 2597 2593 1
2601 2598 2593 2
2602 2596 2595 1
2603 2599 2596 1
2604 2600 2596 2
2605 2605 2608 1
2606 2609 2605 1
2607 2605 2615 1
2608 2605 2616 1
2609 2606 2608 1
2610 2623 2606 1
2611 2606 2617 1
2612 2606 2618 1
2613 2607 2608 1
2614 2611 2607 1
2615 2612 2607 2
2616 2610 2609 1
2617 2609 2620 1
2618 2613 2610 1
2619 2614 2610 2
2620 2619 2622 1
2621 2623 2619 1
2622 2619 2629 1
2623 2619 2630 1
2624 2620 2622 1
2625 2620 2631 1
2626 2620 2632 1
2627 2621 2622 1
2628 2625 2621 1
2629 2626 2621 2
2630 2624 2623 1
2631 2627 2624 1
2632 2628 2624 2
2633 2633 2636 1
2634 2637 2633 1
2635 2633 2643 1
2636 2633 2644 1
2637 2634 2636 1
2638 2651 2634 1
2639 2634 2645 1
2640 2634 2646 1
2641 2635 2636 1
2642 2639 2635 1
2643 2640 2635 2
2644 2638 2637 1
2645 2637 2648 1
2646 2641 2638 1
2647 2642 2638 2
2648 2647 2650 1
2649 2651 2647 1
2650 2647 2657 1
2651 2647 2658 1
2652 2648 2650 1
2653 2648 2659 1
2654 2648 2660 1
2655 2649 2650 1
2656 2653 2649 1
2657 2654 2649 2
2658 2652 2651 1
2659 2655 2652 1
2660 2656 2652 2
2661 2661 2664 1
2662 2665 2661 1
2663 2661 2671 1
2664 2661 2672 1
2665 2662 2664 1
2666 2679 2662 1
2667 2662 2673 1
2668 2662 2674 1
2669 2663 2664 1
2670 2667 2663 1
2671 2668 2663 2
2672 2666 2665 1
2673 2665 2676 1
2674 2669 2666 1
2675 2670 2666 2
2676 2675 2678 1
2677 2679 2675 1
2678 2675 2685 1
2679 2675 2686 1
2680 2676 2678 1
2681 2676 2687 1
2682 2676 2688 1
2683 2677 2678 1
2684 2681 2677 1
2685 2682 2677 2
2686 2680 2679 1
2687 2683 2680 1
2688 2684 2680 2
2689 2689 2692 1
2690 2693 2689 1
2691 2689 2699 1
2692 2689 2700 1
2693 2690 2692 1
2694 2707 2690 1
2695 2690 2701 1
2696 2690 2702 1
2697 2691 2692 1
2698 2695 2691 1
2699 2696 2691 2
2700 2694 2693 1
2701 2693 2704 1
2702 2697 2694 1
2703 2698 2694 2
2704 2703 2706 1
2705 2707 2703 1
2706 2703 2713 1
2707 2703 2714 1
2708 2704 2706 1
2709 2704 2715 1
2710 2704 2716 1
2711 2705 2706 1
2712 2709 2705 1
2713 2710 2705 2
2714 2708 2707 1
2715 2711 2708 1
2716 2712 2708 2
2717 2717 2720 1
2718 2721 2717 1
2719 2717 2727 1
2720 2717 2728 1
2721 2718 2720 1
2722 2735 2718 1
2723 2718 2729 1
2724 2718 2730 1
2725 2719 2720 1
2726 2723 2719 1
2727 2724 2719 2
2728 2722 2721 1
2729 2721 2732 1
2730 2725 2722 1
2731 2726 2722 2
2732 2731 2734 1
2733 2735 2731 1
2734 2731 2741 1
2735 2731 2742 1
2736 2732 2734 1
2737 2732 2743 1
2738 2732 2744 1
2739 2733 2734 1
2740 2737 2733 1
2741 2738 2733 2
2742 2736 2735 1
2743 2739 2736 1
2744 2740 2736 2
2745 2745 2748 1
2746 2749 2745 1
2747 2745 2755 1
2748 2745 2756 1
2749 2746 2748 1
2750 2763 2746 1
2751 2746 2757 1
2752 2746 2758 1
2753 2747 2748 1
2754 2751 2747 1
2755 2752 2747 2
2756 2750 2749 1
2757 2749 2760 1
2758 2753 2750 1
2759 2754 2750 2
2760 2759 2762 1
2761 2763 2759 1
2762 2759 2769 1
2763 2759 2770 1
2764 2760 2762 1
2765 2760 2771 1
2766 2760 2772 1
2767 2761 2762 1
2768 2765 2761 1
2769 2766 2761 2
2770 2764 2763 1
2771 2767 2764 1
2772 2768 2764 2
2773 2773 2776 1
2774 2777 2773 1
2775 2773 2783 1
2776 2773 2784 1
2777 2774 2776 1
2778 2791 2774 1
2779 2774 2785 1
2780 2774 2786 1
2781 2775 2776 1
2782 2779 2775 1
2783 2780 2775 2
2784 2778 2777 1
2785 2777 2788 1
2786 2781 2778 1
2787 2782 2778 2
2788 2787 2790 1
2789 2791 2787 1
2790 2787 2797 1
2791 2787 2798 1
2792 2788 2790 1
2793 2788 2799 1
2794 2788 2800 1
2795 2789 2790 1
2796 2793 2789 1
2797 2794 2789 2
2798 2792 2791 1
2799 2795 2792 1
2800 2796 2792 2
2801 2801 2804 1
2802 2805 2801 1
2803 2801 2811 1
2804 2801 2812 1
2805 2802 2804 1
2806 2819 2802 1
2807 2802 2813 1
2808 2802 2814 1
2809 2803 2804 1
2810 2807 2803 1
2811 2808 2803 2
2812 2806 2805 1
2813 2805 2816 1
2814 2809 2806 1
2815 2810 2806 2
2816 2815 2818 1
2817 2819 2815 1
2818 2815 2825 1
2819 2815 2826 1
2820 2816 2818 1
2821 2816 2827 1
2822 2816 2828 1
2823 2817 2818 1
2824 2821 2817 1
2825 2822 2817 2
2826 2820 2819 1
2827 2823 2820 1
2828 2824 2820 2
2829 2829 2832 1
2830 2833 2829 1
2831 2829 2839 1
2832 2829 2840 1
2833 2830 2832 1
2834 2847 2830 1
2835 2830 2841 1
2836 2830 2842 1
2837 2831 2832 1
2838 2835 2831 1
2839 2836 2831 2
2840 2834 2833 1
2841 2833 2844 1
2842 2837 2834 1
2843 2838 2834 2
2844 2843 2846 1
2845 2847 2843 1
2846 2843 2853 1
2847 2843 2854 1
2848 2844 2846 1
2849 2844 2855 1
2850 2844 2856 1
2851 2845 2846 1
2852 2849 2845 1
2853 2850 2845 2
2854 2848 2847 1
2855 2851 2848 1
2856 2852 2848 2
2857 2857 2860 1
2858 2861 2857 1
2859 2857 2867 1
2860 2857 2868 1
2861 2858 2860 1
2862 2875 2858 1
2863 2858 2869 1
2864 2858 2870 1
2865 2859 2860 1
2866 2863 2859 1
2867 2864 2859 2
2868 2862 2861 1
2869 2861 2872 1
2870 2865 2862 1
2871 2866 2862 2
2872 2871 2874 1
2873 2875 2871 1
2874 2871 2881 1
2875 2871 2882 1
2876 2872 2874 1
2877 2872 2883 1
2878 2872 2884 1
2879 2873 2874 1
2880 2877 2873 1
2881 2878 2873 2
2882 2876 2875 1
2883 2879 2876 1
2884 2880 2876 2
2885 2885 2888 1
2886 2889 2885 1
2887 2885 2895 1
2888 2885 2896 1
2889 2886 2888 1
2890 2903 2886 1
2891 2886 2897 1
2892 2886 2898 1
2893 2887 2888 1
2894 2891 2887 1
2895 2892 2887 2
2896 2890 2889 1
2897 2889 2900 1
2898 2893 2890 1
2899 2894 2890 2
2900 2899 2902 1
2901 2903 2899 1
2902 2899 2909 1
2903 2899 2910 1
2904 2900 2902 1
2905 2900 2911 1
2906 2900 2912 1
2907 2901 2902 1
2908 2905 2901 1
2909 2906 2901 2
2910 2904 2903 1
2911 2907 2904 1
2912 2908 2904 2
2913 2913 2916 1
2914 2917 2913 1
2915 2913 2923 1
2916 2913 2924 1
2917 2914 2916 1
2918 2931 2914 1
2919 2914 2925 1
2920 2914 2926 1
2921 2915 2916 1
2922 2919 2915 1
2923 2920 2915 2
2924 2918 2917 1
2925 2917 2928 1
2926 2921 2918 1
2927 2922 2918 2
2928 2927 2930 1
2929 2931 2927 1
2930 2927 2937 1
2931 2927 2938 1
2932 2928 2930 1
2933 2928 2939 1
2934 2928 2940 1
2935 2929 2930 1
2936 2933 2929 1
2937 2934 2929 2
2938 2932 2931 1
2939 2935 2932 1
2940 2936 2932 2
2941 2941 2944 1
2942 2945 2941 1
2943 2941 2951 1
2944 2941 2952 1
2945 2942 2944 1
2946 2959 2942 1
2947 2942 2953 1
2948 2942 2954 1
2949 2943 2944 1
2950 2947 2943 1
2951 2948 2943 2
2952 2946 2945 1
2953 2945 2956 1
2954 2949 2946 1
2955 2950 2946 2
2956 2955 2958 1
2957 2959 2955 1
2958 2955 2965 1
2959 2955 2966 1
2960 2956 2958 1
2961 2956 2967 1
2962 2956 2968 1
2963 2957 2958 1
2964 2961 2957 1
2965 2962 2957 2
2966 2960 2959 1
2967 2963 2960 1
2968 2964 2960 2
2969 2969 2972 1
2970 2973 2969 1
2971 2969 2979 1
2972 2969 2980 1
2973 2970 2972 1
2974 2987 2970 1
2975 2970 2981 1
2976 2970 2982 1
2977 2971 2972 1
2978 2975 2971 1
2979 2976 2971 2
2980 2974 2973 1
2981 2973 2984 1
2982 2977 2974 1
2983 2978 2974 2
2984 2983 2986 1
2985 2987 2983 1
2986 2983 2993 1
2987 2983 2994 1
2988 2984 2986 1
2989 2984 2995 1
2990 2984 2996 1
2991 2985 2986 1
2992 2989 2985 1
2993 2990 2985 2
2994 2988 2987 1
2995 2991 2988 1
2996 2992 2988 2
2997 2997 3000 1
2998 3001 2997 1
2999 2997 3007 1
3000 2997 3008 1
3001 2998 3000 1
3002 3015 2998 1
3003 2998 3009 1
3004 2998 3010 1
3005 2999 3000 1
3006 3003 2999 1
3007 3004 2999 2
3008 3002 3001 1
3009 3001 3012 1
3010 3005 3002 1
3011 3006 3002 2
3012 3011 3014 1
3013 3015 3011 1
3014 3011 3021 1
3015 3011 3022 1
3016 3012 3014 1
3017 3012 3023 1
3018 3012 3024 1
3019 3013 3014 1
3020 3017 3013 1
3021 3018 3013 2
3022 3016 3015 1
3023 3019 3016 1
3024 3020 3016 2
3025 3025 3028 1
3026 3029 3025 1
3027 3025 3035 1
3028 3025 3036 1
3029 3026 3028 1
3030 3043 3026 1
3031 3026 3037 1
3032 3026 3038 1
3033 3027 3028 1
3034 3031 3027 1
3035 3032 3027 2
3036 3030 3029 1
3037 3029 3040 1
3038 3033 3030 1
3039 3034 3030 2
3040 3039 3042 1
3041 3043 3039 1
3042 3039 3049 1
3043 3039 3050 1
3044 3040 3042 1
3045 3040 3051 1
3046 3040 3052 1
3047 3041 3042 1
3048 3045 3041 1
3049 3046 3041 2
3050 3044 3043 1
3051 3047 3044 1
3052 3048 3044 2
3053 3053 3056 1
3054 3057 3053 1
3055 3053 3063 1
3056 3053 3064 1
3057 3054 3056 1
3058 3071 3054 1
3059 3054 3065 1
3060 3054 3066 1
3061 3055 3056 1
3062 3059 3055 1
3063 3060 3055 2
3064 3058 3057 1
3065 3057 3068 1
3066 3061 3058 1
3067 3062 3058 2
3068 3067 3070 1
3069 3071 3067 1
3070 3067 3077 1
3071 3067 3078 1
3072 3068 3070 1
3073 3068 3079 1
3074 3068 3080 1
3075 3069 3070 1
3076 3073 3069 1
3077 3074 3069 2
3078 3072 3071 1
3079 3075 3072 1
3080 3076 3072 2
3081 3081 3084 1
3082 3085 3081 1
3083 3081 3091 1
3084 3081 3092 1
3085 3082 3084 1
3086 3099 3082 1
3087 3082 3093 1
3088 3082 3094 1
3089 3083 3084 1
3090 3087 3083 1
3091 3088 3083 2
3092 3086 3085 1
3093 3085 3096 1
3094 3089 3086 1
3095 3090 3086 2
3096 3095 3098 1
3097 3099 3095 1
3098 3095 3105 1
3099 3095 3106 1
3100 3096 3098 1
3101 3096 3107 1
3102 3096 3108 1
3103 3097 3098 1
3104 3101 3097 1
3105 3102 3097 2
3106 3100 3099 1
3107 3103 3100 1
3108 3104 3100 2
3109 3109 3112 1
3110 3113 3109 1
3111 3109 3119 1
3112 3109 3120 1
3113 3110 3112 1
3114 3127 3110 1
3115 3110 3121 1
3116 3110 3122 1
3117 3111 3112 1
3118 3115 3111 1
3119 3116 3111 2
3120 3114 3113 1
3121 3113 3124 1
3122 3117 3114 1
3123 3118 3114 2
3124 3123 3126 1
3125 3127 3123 1
3126 3123 3133 1
3127 3123 3134 1
3128 3124 3126 1
3129 3124 3135 1
3130 3124 3136 1
3131 3125 3126 1
3132 3129 3125 1
3133 3130 3125 2
3134 3128 3127 1
3135 3131 3128 1
3136 3132 3128 2
3137 3137 3140 1
3138 3141 3137 1
3139 3137 3147 1
3140 3137 3148 1
3141 3138 3140 1
3142 3155 3138 1
3143 3138 3149 1
3144 3138 3150 1
3145 3139 3140 1
3146 3143 3139 1
3147 3144 3139 2
3148 3142 3141 1
3149 3141 3152 1
3150 3145 3142 1
3151 3146 3142 2
3152 3151 3154 1
3153 3155 3151 1
3154 3151 3161 1
3155 3151 3162 1
3156 3152 3154 1
3157 3152 3163 1
3158 3152 3164 1
3159 3153 3154 1
3160 3157 3153 1
3161 3158 3153 2
3162 3156 3155 1
3163 3159 3156 1
3164 3160 3156 2
3165 3165 3168 1
3166 3169 3165 1
3167 3165 3175 1
3168 3165 3176 1
3169 3166 3168 1
3170 3183 3166 1
3171 3166 3177 1
3172 3166 3178 1
3173 3167 3168 1
3174 3171 3167 1
3175 3172 3167 2
3176 3170 3169 1
3177 3169 3180 1
3178 3173 3170 1
3179 3174 3170 2
3180 3179 3182 1
3181 3183 3179 1
3182 3179 3189 1
3183 3179 3190 1
3184 3180 3182 1
3185 3180 3191 1
3186 3180 3192 1
3187 3181 3182 1
3188 3185 3181 1
3189 3186 3181 2
3190 3184 3183 1
3191 3187 3184 1
3192 3188 3184 2
3193 3193 3196 1
3194 3197 3193 1
3195 3193 3203 1
3196 3193 3204 1
3197 3194 3196 1
3198 3211 3194 1
3199 3194 3205 1
3200 3194 3206 1
3201 3195 3196 1
3202 3199 3195 1
3203 3200 3195 2
3204 3198 3197 1
3205 3197 3208 1
3206 3201 3198 1
3207 3202 3198 2
3208 3207 3210 1
3209 3211 3207 1
3210 3207 3217 1
3211 3207 3218 1
3212 3208 3210 1
3213 3208 3219 1
3214 3208 3220 1
3215 3209 3210 1
3216 3213 3209 1
3217 3214 3209 2
3218 3212 3211 1
3219 3215 3212 1
3220 3216 3212 2
3221 3221 3224 1
3222 3225 3221 1
3223 3221 3231 1
3224 3221 3232 1
3225 3222 3224 1
3226 3239 3222 1
3227 3222 3233 1
3228 3222 3234 1
3229 3223 3224 1
3230 3227 3223 1
3231 3228 3223 2
3232 3226 3225 1
3233 3225 3236 1
3234 3229 3226 1
3235 3230 3226 2
3236 3235 3238 1
3237 3239 3235 1
3238 3235 3245 1
3239 3235 3246 1
3240 3236 3238 1
3241 3236 3247 1
3242 3236 3248 1
3243 3237 3238 1
3244 3241 3237 1
3245 3242 3237 2
3246 3240 3239 1
3247 3243 3240 1
3248 3244 3240 2
3249 3249 3252 1
3250 3253 3249 1
3251 3249 3259 1
3252 3249 3260 1
3253 3250 3252 1
3254 3267 3250 1
3255 3250 3261 1
3256 3250 3262 1
3257 3251 3252 1
3258 3255 3251 1
3259 3256 3251 2
3260 3254 3253 1
3261 3253 3264 1
3262 3257 3254 1
3263 3258 3254 2
3264 3263 3266 1
3265 3267 3263 1
3266 3263 3273 1
3267 3263 3274 1
3268 3264 3266 1
3269 3264 3275 1
3270 3264 3276 1
3271 3265 3266 1
3272 3269 3265 1
3273 3270 3265 2
3274 3268 3267 1
3275 3271 3268 1
3276 3272 3268 2
3277 3277 3280 1
3278 3281 3277 1
3279 3277 3287 1
3280 3277 3288 1
3281 3278 3280 1
3282 3295 3278 1
3283 3278 3289 1
3284 3278 3290 1
3285 3279 3280 1
3286 3283 3279 1
3287 3284 3279 2
3288 3282 3281 1
3289 3281 3292 1
3290 3285 3282 1
3291 3286 3282 2
3292 3291 3294 1
3293 3295 3291 1
3294 3291 3301 1
3295 3291 3302 1
3296 3292 3294 1
3297 3292 3303 1
3298 3292 3304 1
3299 3293 3294 1
3300 3297 3293 1
3301 3298 3293 2
3302 3296 3295 1
3303 3299 3296 1
3304 3300 3296 2
3305 3305 3308 1
3306 3309 3305 1
3307 3305 3315 1
3308 3305 3316 1
3309 3306 3308 1
3310 3323 3306 1
3311 3306 3317 1
3312 3306 3318 1
3313 3307 3308 1
3314 3311 3307 1
3315 3312 3307 2
3316 3310 3309 1
3317 3309 3320 1
3318 3313 3310 1
3319 3314 3310 2
3320 3319 3322 1
3321 3323 3319 1
3322 3319 3329 1
3323 3319 3330 1
3324 3320 3322 1
3325 3320 3331 1
3326 3320 3332 1
3327 3321 3322 1
3328 3325 3321 1
3329 3326 3321 2
3330 3324 3323 1
3331 3327 3324 1
3332 3328 3324 2
3333 3333 3336 1
3334 3337 3333 1
3335 3333 3343 1
3336 3333 3344 1
3337 3334 3336 1
3338 3351 3334 1
3339 3334 3345 1
3340 3334 3346 1
3341 3335 3336 1
3342 3339 3335 1
3343 3340 3335 2
3344 3338 3337 1
3345 3337 3348 1
3346 3341 3338 1
3347 3342 3338 2
3348 3347 3350 1
3349 3351 3347 1
3350 3347 3357 1
3351 3347 3358 1
3352 3348 3350 1
3353 3348 3359 1
3354 3348 3360 1
3355 3349 3350 1
3356 3353 3349 1
3357 3354 3349 2
3358 3352 3351 1
3359 3355 3352 1
3360 3356 3352 2
3361 3361 3364 1
3362 3365 3361 1
3363 3361 3371 1
3364 3361 3372 1
3365 3362 3364 1
3366 3379 3362 1
3367 3362 3373 1
3368 3362 3374 1
3369 3363 3364 1
3370 3367 3363 1
3371 3368 3363 2
3372 3366 3365 1
3373 3365 3376 1
3374 3369 3366 1
3375 3370 3366 2
3376 3375 3378 1
3377 3379 3375 1
3378 3375 3385 1
3379 3375 3386 1
3380 3376 3378 1
3381 3376 3387 1
3382 3376 3388 1
3383 3377 3378 1
3384 3381 3377 1
3385 3382 3377 2
3386 3380 3379 1
3387 3383 3380 1
3388 3384 3380 2
3389 3389 3392 1
3390 3393 3389 1
3391 3389 3399 1
3392 3389 3400 1
3393 3390 3392 1
3394 3407 3390 1
3395 3390 3401 1
3396 3390 3402 1
3397 3391 3392 1
3398 3395 3391 1
3399 3396 3391 2
3400 3394 3393 1
3401 3393 3404 1
3402 3397 3394 1
3403 3398 3394 2
3404 3403 3406 1
3405 3407 3403 1
3406 3403 3413 1
3407 3403 3414 1
3408 3404 3406 1
3409 3404 3415 1
3410 3404 3416 1
3411 3405 3406 1
3412 3409 3405 1
3413 3410 3405 2
3414 3408 3407 1
3415 3411 3408 1
3416 3412 3408 2
3417 3417 3420 1
3418 3421 3417 1
3419 3417 3427 1
3420 3417 3428 1
3421 3418 3420 1
3422 3435 3418 1
3423 3418 3429 1
3424 3418 3430 1
3425 3419 3420 1
3426 3423 3419 1
3427 3424 3419 2
3428 3422 3421 1
3429 3421 3432 1
3430 3425 3422 1
3431 3426 3422 2
3432 3431 3434 1
3433 3435 3431 1
3434 3431 3441 1
3435 3431 3442 1
3436 3432 3434 1
3437 3432 3443 1
3438 3432 3444 1
3439 3433 3434 1
3440 3437 3433 1
3441 3438 3433 2
3442 3436 3435 1
3443 3439 3436 1
3444 3440 3436 2
3445 3445 3448 1
3446 3449 3445 1
3447 3445 3455 1
3448 3445 3456 1
3449 3446 3448 1
3450 3463 3446 1
3451 3446 3457 1
3452 3446 3458 1
3453 3447 3448 1
3454 3451 3447 1
3455 3452 3447 2
3456 3450 3449 1
3457 3449 3460 1
3458 3453 3450 1
3459 3454 3450 2
3460 3459 3462 1
3461 3463 3459 1
3462 3459 3469 1
3463 3459 3470 1
3464 3460 3462 1
3465 3460 3471 1
3466 3460 3472 1
3467 3461 3462 1
3468 3465 3461 1
3469 3466 3461 2
3470 3464 3463 1
3471 3467 3464 1
3472 3468 3464 2
3473 3473 3476 1
3474 3477 3473 1
3475 3473 3483 1
3476 3473 3484 1
3477 3474 3476 1
3478 3491 3474 1
3479 3474 3485 1
3480 3474 3486 1
3481 3475 3476 1
3482 3479 3475 1
3483 3480 3475 2
3484 3478 3477 1
3485 3477 3488 1
3486 3481 3478 1
3487 3482 3478 2
3488 3487 3490 1
3489 3491 3487 1
3490 3487 3497 1
3491 3487 3498 1
3492 3488 3490 1
3493 3488 3499 1
3494 3488 3500 1
3495 3489 3490 1
3496 3493 3489 1
3497 3494 3489 2
3498 3492 3491 1
3499 3495 3492 1
3500 3496 3492 2
3501 3501 3504 1
3502 3505 3501 1
3503 3501 3511 1
3504 3501 3512 1
3505 3502 3504 1
3506 3519 3502 1
3507 3502 3513 1
3508 3502 3514 1
3509 3503 3504 1
3510 3507 3503 1
3511 3508 3503 2
3512 3506 3505 1
3513 3505 3516 1
3514 3509 3506 1
3515 3510 3506 2
3516 3515 3518 1
3517 3519 3515 1
3518 3515 3525 1
3519 3515 3526 1
3520 3516 3518 1
3521 3516 3527 1
3522 3516 3528 1
3523 3517 3518 1
3524 3521 3517 1
3525 3522 3517 2
3526 3520 3519 1
3527 3523 3520 1
3528 3524 3520 2
3529 3529 3532 1
3530 3533 3529 1
3531 3529 3539 1
3532 3529 3540 1
3533 3530 3532 1
3534 3547 3530 1
3535 3530 3541 1
3536 3530 3542 1
3537 3531 3532 1
3538 3535 3531 1
3539 3536 3531 2
3540 3534 3533 1
3541 3533 3544 1
3542 3537 3534 1
3543 3538 3534 2
3544 3543 3546 1
3545 3547 3543 1
3546 3543 3553 1
3547 3543 3554 1
3548 3544 3546 1
3549 3544 3555 1
3550 3544 3556 1
3551 3545 3546 1
3552 3549 3545 1
3553 3550 3545 2
3554 3548 3547 1
3555 3551 3548 1
3556 3552 3548 2
3557 3557 3560 1
3558 3561 3557 1
3559 3557 3567 1
3560 3557 3568 1
3561 3558 3560 1
3562 3575 3558 1
3563 3558 3569 1
3564 3558 3570 1
3565 3559 3560 1
3566 3563 3559 1
3567 3564 3559 2
3568 3562 3561 1
3569 3561 3572 1
3570 3565 3562 1
3571 3566 3562 2
3572 3571 3574 1
3573 3575 3571 1
3574 3571 3581 1
3575 3571 3582 1
3576 3572 3574 1
3577 3572 3583 1
3578 3572 3584 1
3579 3573 3574 1
3580 3577 3573 1
3581 3578 3573 2
3582 3576 3575 1
3583 3579 3576 1
3584 3580 3576 2
3585 3585 3588 1
3586 3589 3585 1
3587 3585 3595 1
3588 3585 3596 1
3589 3586 3588 1
3590 3603 3586 1
3591 3586 3597 1
3592 3586 3598 1
3593 3587 3588 1
3594 3591 3587 1
3595 3592 3587 2
3596 3590 3589 1
3597 3589 3600 1
3598 3593 3590 1
3599 3594 3590 2
3600 3599 3602 1
3601 3603 3599 1
3602 3599 3609 1
3603 3599 3610 1
3604 3600 3602 1
3605 3600 3611 1
3606 3600 3612 1
3607 3601 3602 1
3608 3605 3601 1
3609 3606 3601 2
3610 3604 3603 1
3611 3607 3604 1
3612 3608 3604 2
3613 3613 3616 1
3614 3617 3613 1
3615 3613 3623 1
3616 3613 3624 1
3617 3614 3616 1
3618 3631 3614 1
3619 3614 3625 1
3620 3614 3626 1
3621 3615 3616 1
3622 3619 3615 1
3623 3620 3615 2
3624 3618 3617 1
3625 3617 3628 1
3626 3621 3618 1
3627 3622 3618 2
3628 3627 3630 1
3629 3631 3627 1
3630 3627 3637 1
3631 3627 3638 1
3632 3628 3630 1
3633 3628 3639 1
3634 3628 3640 1
3635 3629 3630 1
3636 3633 3629 1
3637 3634 3629 2
3638 3632 3631 1
3639 3635 3632 1
3640 3636 3632 2
3641 3641 3644 1
3642 3645 3641 1
3643 3641 3651 1
3644 3641 3652 1
3645 3642 3644 1
3646 3659 3642 1
3647 3642 3653 1
3648 3642 3654 1
3649 3643 3644 1
3650 3647 3643 1
3651 3648 3643 2
3652 3646 3645 1
3653 3645 3656 1
3654 3649 3646 1
3655 3650 3646 2
3656 3655 3658 1
3657 3659 3655 1
3658 3655 3665 1
3659 3655 3666 1
3660 3656 3658 1
3661 3656 3667 1
3662 3656 3668 1
3663 3657 3658 1
3664 3661 3657 1
3665 3662 3657 2
3666 3660 3659 1
3667 3663 3660 1
3668 3664 3660 2
3669 3669 3672 1
3670 3673 3669 1
3671 3669 3679 1
3672 3669 3680 1
3673 3670 3672 1
3674 3687 3670 1
3675 3670 3681 1
3676 3670 3682 1
3677 3671 3672 1
3678 3675 3671 1
3679 3676 3671 2
3680 3674 3673 1
3681 3673 3684 1
3682 3677 3674 1
3683 3678 3674 2
3684 3683 3686 1
3685 3687 3683 1
3686 3683 3693 1
3687 3683 3694 1
3688 3684 3686 1
3689 3684 3695 1
3690 3684 3696 1
3691 3685 3686 1
3692 3689 3685 1
3693 3690 3685 2
3694 3688 3687 1
3695 3691 3688 1
3696 3692 3688 2
3697 3697 3700 1
3698 3701 3697 1
3699 3697 3707 1
3700 3697 3708 1
3701 3698 3700 1
3702 3715 3698 1
3703 3698 3709 1
3704 3698 3710 1
3705 3699 3700 1
3706 3703 3699 1
3707 3704 3699 2
3708 3702 3701 1
3709 3701 3712 1
3710 3705 3702 1
3711 3706 3702 2
3712 3711 3714 1
3713 3715 3711 1
3714 3711 3721 1
3715 3711 3722 1
3716 3712 3714 1
3717 3712 3723 1
3718 3712 3724 1
3719 3713 3714 1
3720 3717 3713 1
3721 3718 3713 2
3722 3716 3715 1
3723 3719 3716 1
3724 3720 3716 2
3725 3725 3728 1
3726 3729 3725 1
3727 3725 3735 1
3728 3725 3736 1
3729 3726 3728 1
3730 3743 3726 1
3731 3726 3737 1
3732 3726 3738 1
3733 3727 3728 1
3734 3731 3727 1
3735 3732 3727 2
3736 3730 3729 1
3737 3729 3740 1
3738 3733 3730 1
3739 3734 3730 2
3740 3739 3742 1
3741 3743 3739 1
3742 3739 3749 1
3743 3739 3750 1
3744 3740 3742 1
3745 3740 3751 1
3746 3740 3752 1
3747 3741 3742 1
3748 3745 3741 1
3749 3746 3741 2
3750 3744 3743 1
3751 3747 3744 1
3752 3748 3744 2
3753 3753 3756 1
3754 3757 3753 1
3755 3753 3763 1
3756 3753 3764 1
3757 3754 3756 1
3758 3771 3754 1
3759 3754 3765 1
3760 3754 3766 1
3761 3755 3756 1
3762 3759 3755 1
3763 3760 3755 2
3764 3758 3757 1
3765 3757 3768 1
3766 3761 3758 1
3767 3762 3758 2
3768 3767 3770 1
3769 3771 3767 1
3770 3767 3777 1
3771 3767 3778 1
3772 3768 3770 1
3773 3768 3779 1
3774 3768 3780 1
3775 3769 3770 1
3776 3773 3769 1
3777 3774 3769 2
3778 3772 3771 1
3779 3775 3772 1
3780 3776 3772 2
3781 3781 3784 1
3782 3785 3781 1
3783 3781 3791 1
3784 3781 3792 1
3785 3782 3784 1
3786 3799 3782 1
3787 3782 3793 1
3788 3782 3794 1
3789 3783 3784 1
3790 3787 3783 1
3791 3788 3783 2
3792 3786 3785 1
3793 3785 3796 1
3794 3789 3786 1
3795 3790 3786 2
3796 3795 3798 1
3797 3799 3795 1
3798 3795 3805 1
3799 3795 3806 1
3800 3796 3798 1
3801 3796 3807 1
3802 3796 3808 1
3803 3797 3798 1
3804 3801 3797 1
3805 3802 3797 2
3806 3800 3799 1
3807 3803 3800 1
3808 3804 3800 2
3809 3809 3812 1
3810 3813 3809 1
3811 3809 3819 1
3812 3809 3820 1
3813 3810 3812 1
3814 3827 3810 1
3815 3810 3821 1
3816 3810 3822 1
3817 3811 3812 1
3818 3815 3811 1
3819 3816 3811 2
3820 3814 3813 1
3821 3813 3824 1
3822 3817 3814 1
3823 3818 3814 2
3824 3823 3826 1
3825 3827 3823 1
3826 3823 3833 1
3827 3823 3834 1
3828 3824 3826 1
3829 3824 3835 1
3830 3824 3836 1
3831 3825 3826 1
3832 3829 3825 1
3833 3830 3825 2
3834 3828 3827 1
3835 3831 3828 1
3836 3832 3828 2
3837 3837 3840 1
3838 3841 3837 1
3839 3837 3847 1
3840 3837 3848 1
3841 3838 3840 1
3842 3855 3838 1
3843 3838 3849 1
3844 3838 3850 1
3845 3839 3840 1
3846 3843 3839 1
3847 3844 3839 2
3848 3842 3841 1
3849 3841 3852 1
3850 3845 3842 1
3851 3846 3842 2
3852 3851 3854 1
3853 3855 3851 1
3854 3851 3861 1
3855 3851 3862 1
3856 3852 3854 1
3857 3852 3863 1
3858 3852 3864 1
3859 3853 3854 1
3860 3857 3853 1
3861 3858 3853 2
3862 3856 3855 1
3863 3859 3856 1
3864 3860 3856 2
3865 3865 3868 1
3866 3869 3865 1
3867 3865 3875 1
3868 3865 3876 1
3869 3866 3868 1
3870 3883 3866 1
3871 3866 3877 1
3872 3866 3878 1
3873 3867 3868 1
3874 3871 3867 1
3875 3872 3867 2
3876 3870 3869 1
3877 3869 3880 1
3878 3873 3870 1
3879 3874 3870 2
3880 3879 3882 1
3881 3883 3879 1
3882 3879 3889 1
3883 3879 3890 1
3884 3880 3882 1
3885 3880 3891 1
3886 3880 3892 1
3887 3881 3882 1
3888 3885 3881 1
3889 3886 3881 2
3890 3884 3883 1
3891 3887 3884 1
3892 3888 3884 2
3893 3893 3896 1
3894 3897 3893 1
3895 3893 3903 1
3896 3893 3904 1
3897 3894 3896 1
3898 3911 3894 1
3899 3894 3905 1
3900 3894 3906 1
3901 3895 3896 1
3902 3899 3895 1
3903 3900 3895 2
3904 3898 3897 1
3905 3897 3908 1
3906 3901 3898 1
3907 3902 3898 2
3908 3907 3910 1
3909 3911 3907 1
3910 3907 3917 1
3911 3907 3918 1
3912 3908 3910 1
3913 3908 3919 1
3914 3908 3920 1
3915 3909 3910 1
3916 3913 3909 1
3917 3914 3909 2
3918 3912 3911 1
3919 3915 3912 1
3920 3916 3912 2
3921 3921 3924 1
3922 3925 3921 1
3923 3921 3931 1
3924 3921 3932 1
3925 3922 3924 1
3926 3939 3922 1
3927 3922 3933 1
3928 3922 3934 1
3929 3923 3924 1
3930 3927 3923 1
3931 3928 3923 2
3932 3926 3925 1
3933 3925 3936 1
3934 3929 3926 1
3935 3930 3926 2
3936 3935 3938 1
3937 3939 3935 1
3938 3935 3945 1
3939 3935 3946 1
3940 3936 3938 1
3941 3936 3947 1
3942 3936 3948 1
3943 3937 3938 1
3944 3941 3937 1
3945 3942 3937 2
3946 3940 3939 1
3947 3943 3940 1
3948 3944 3940 2
3949 3949 3952 1
3950 3953 3949 1
3951 3949 3959 1
3952 3949 3960 1
3953 3950 3952 1
3954 3967 3950 1
3955 3950 3961 1
3956 3950 3962 1
3957 3951 3952 1
3958 3955 3951 1
3959 3956 3951 2
3960 3954 3953 1
3961 3953 3964 1
3962 3957 3954 1
3963 3958 3954 2
3964 3963 3966 1
3965 3967 3963 1
3966 3963 3973 1
3967 3963 3974 1
3968 3964 3966 1
3969 3964 3975 1
3970 3964 3976 1
3971 3965 3966 1
3972 3969 3965 1
3973 3970 3965 2
3974 3968 3967 1
3975 3971 3968 1
3976 3972 3968 2
3977 3977 3980 1
3978 3981 3977 1
3979 3977 3987 1
3980 3977 3988 1
3981 3978 3980 1
3982 3995 3978 1
3983 3978 3989 1
3984 3978 3990 1
3985 3979 3980 1
3986 3983 3979 1
3987 3984 3979 2
3988 3982 3981 1
3989 3981 3992 1
3990 3985 3982 1
3991 3986 3982 2
3992 3991 3994 1
3993 3995 3991 1
3994 3991 4001 1
3995 3991 4002 1
3996 3992 3994 1
3997 3992 4003 1
3998 3992 4004 1
3999 3993 3994 1
4000 3997 3993 1
4001 3998 3993 2
4002 3996 3995 1
4003 3999 3996 1
4004 4000 3996 2
4005 4005 4008 1
4006 4009 4005 1
4007 4005 4015 1
4008 4005 4016 1
4009 4006 4008 1
4010 4023 4006 1
4011 4006 4017 1
4012 4006 4018 1
4013 4007 4008 1
4014 4011 4007 1
4015 4012 4007 2
4016 4010 4009 1
4017 4009 4020 1
4018 4013 4010 1
4019 4014 4010 2
4020 4019 4022 1
4021 4023 4019 1
4022 4019 4029 1
4023 4019 4030 1
4024 4020 4022 1
4025 4020 4031 1
4026 4020 4032 1
4027 4021 4022 1
4028 4025 4021 1
4029 4026 4021 2
4030 4024 4023 1
4031 4027 4024 1
4032 4028 4024 2
4033 4033 4036 1
4034 4037 4033 1
4035 4033 4043 1
4036 4033 4044 1
4037 4034 4036 1
4038 4051 4034 1
4039 4034 4045 1
4040 4034 4046 1
4041 4035 4036 1
4042 4039 4035 1
4043 4040 4035 2
4044 4038 4037 1
4045 4037 4048 1
4046 4041 4038 1
4047 4042 4038 2
4048 4047 4050 1
4049 4051 4047 1
4050 4047 4057 1
4051 4047 4058 1
4052 4048 4050 1
4053 4048 4059 1
4054 4048 4060 1
4055 4049 4050 1
4056 4053 4049 1
4057 4054 4049 2
4058 4052 4051 1
4059 4055 4052 1
4060 4056 4052 2
4061 4061 4064 1
4062 4065 4061 1
4063 4061 4071 1
4064 4061 4072 1
4065 4062 4064 1
4066 4079 4062 1
4067 4062 4073 1
4068 4062 4074 1
4069 4063 4064 1
4070 4067 4063 1
4071 4068 4063 2
4072 4066 4065 1
4073 4065 4076 1
4074 4069 4066 1
4075 4070 4066 2
4076 4075 4078 1
4077 4079 4075 1
4078 4075 4085 1
4079 4075 4086 1
4080 4076 4078 1
4081 4076 4087 1
4082 4076 4088 1
4083 4077 4078 1
4084 4081 4077 1
4085 4082 4077 2
4086 4080 4079 1
4087 4083 4080 1
4088 4084 4080 2
4089 4089 4092 1
4090 4093 4089 1
4091 4089 4099 1
4092 4089 4100 1
4093 4090 4092 1
4094 4107 4090 1
4095 4090 4101 1
4096 4090 4102 1
4097 4091 4092 1
4098 4095 4091 1
4099 4096 4091 2
4100 4094 4093 1
4101 4093 4104 1
4102 4097 4094 1
4103 4098 4094 2
4104 4103 4106 1
4105 4107 4103 1
4106 4103 4113 1
4107 4103 4114 1
4108 4104 4106 1
4109 4104 4115 1
4110 4104 4116 1
4111 4105 4106 1
4112 4109 4105 1
4113 4110 4105 2
4114 4108 4107 1
4115 4111 4108 1
4116 4112 4108 2
4117 4117 4120 1
4118 4121 4117 1
4119 4117 4127 1
4120 4117 4128 1
4121 4118 4120 1
4122 4135 4118 1
4123 4118 4129 1
4124 4118 4130 1
4125 4119 4120 1
4126 4123 4119 1
4127 4124 4119 2
4128 4122 4121 1
4129 4121 4132 1
4130 4125 4122 1
4131 4126 4122 2
4132 4131 4134 1
4133 4135 4131 1
4134 4131 4141 1
4135 4131 4142 1
4136 4132 4134 1
4137 4132 4143 1
4138 4132 4144 1
4139 4133 4134 1
4140 4137 4133 1
4141 4138 4133 2
4142 4136 4135 1
4143 4139 4136 1
4144 4140 4136 2
4145 4145 4148 1
4146 4149 4145 1
4147 4145 4155 1
4148 4145 4156 1
4149 4146 4148 1
4150 4163 4146 1
4151 4146 4157 1
4152 4146 4158 1
4153 4147 4148 1
4154 4151 4147 1
4155 4152 4147 2
4156 4150 4149 1
4157 4149 4160 1
4158 4153 4150 1
4159 4154 4150 2
4160 4159 4162 1
4161 4163 4159 1
4162 4159 4169 1
4163 4159 4170 1
4164 4160 4162 1
4165 4160 4171 1
4166 4160 4172 1
4167 4161 4162 1
4168 4165 4161 1
4169 4166 4161 2
4170 4164 4163 1
4171 4167 4164 1
4172 4168 4164 2
4173 4173 4176 1
4174 4177 4173 1
4175 4173 4183 1
4176 4173 4184 1
4177 4174 4176 1
4178 4191 4174 1
4179 4174 4185 1
4180 4174 4186 1
4181 4175 4176 1
4182 4179 4175 1
4183 4180 4175 2
4184 4178 4177 1
4185 4177 4188 1
4186 4181 4178 1
4187 4182 4178 2
4188 4187 4190 1
4189 4191 4187 1
4190 4187 4197 1
4191 4187 4198 1
4192 4188 4190 1
4193 4188 4199 1
4194 4188 4200 1
4195 4189 4190 1
4196 4193 4189 1
4197 4194 4189 2
4198 4192 4191 1
4199 4195 4192 1
4200 4196 4192 2
4201 4201 4204 1
4202 4205 4201 1
4203 4201 4211 1
4204 4201 4212 1
4205 4202 4204 1
4206 4219 4202 1
4207 4202 4213 1
4208 4202 4214 1
4209 4203 4204 1
4210 4207 4203 1
4211 4208 4203 2
4212 4206 4205 1
4213 4205 4216 1
4214 4209 4206 1
4215 4210 4206 2
4216 4215 4218 1
4217 4219 4215 1
4218 4215 4225 1
4219 4215 4226 1
4220 4216 4218 1
4221 4216 4227 1
4222 4216 4228 1
4223 4217 4218 1
4224 4221 4217 1
4225 4222 4217 2
4226 4220 4219 1
4227 4223 4220 1
4228 4224 4220 2
4229 4229 4232 1
4230 4233 4229 1
4231 4229 4239 1
4232 4229 4240 1
4233 4230 4232 1
4234 4247 4230 1
4235 4230 4241 1
4236 4230 4242 1
4237 4231 4232 1
4238 4235 4231 1
4239 4236 4231 2
4240 4234 4233 1
4241 4233 4244 1
4242 4237 4234 1
4243 4238 4234 2
4244 4243 4246 1
4245 4247 4243 1
4246 4243 4253 1
4247 4243 4254 1
4248 4244 4246 1
4249 4244 4255 1
4250 4244 4256 1
4251 4245 4246 1
4252 4249 4245 1
4253 4250 4245 2
4254 4248 4247 1
4255 4251 4248 1
4256 4252 4248 2
4257 4257 4260 1
4258 4261 4257 1
4259 4257 4267 1
4260 4257 4268 1
4261 4258 4260 1
4262 4275 4258 1
4263 4258 4269 1
4264 4258 4270 1
4265 4259 4260 1
4266 4263 4259 1
4267 4264 4259 2
4268 4262 4261 1
4269 4261 4272 1
4270 4265 4262 1
4271 4266 4262 2
4272 4271 4274 1
4273 4275 4271 1
4274 4271 4281 1
4275 4271 4282 1
4276 4272 4274 1
4277 4272 4283 1
4278 4272 4284 1
4279 4273 4274 1
4280 4277 4273 1
4281 4278 4273 2
4282 4276 4275 1
4283 4279 4276 1
4284 4280 4276 2
4285 4285 4288 1
4286 4289 4285 1
4287 4285 4295 1
4288 4285 4296 1
4289 4286 4288 1
4290 4303 4286 1
4291 4286 4297 1
4292 4286 4298 1
4293 4287 4288 1
4294 4291 4287 1
4295 4292 4287 2
4296 4290 4289 1
4297 4289 4300 1
4298 4293 4290 1
4299 4294 4290 2
4300 4299 4302 1
4301 4303 4299 1
4302 4299 4309 1
4303 4299 4310 1
4304 4300 4302 1
4305 4300 4311 1
4306 4300 4312 1
4307 4301 4302 1
4308 4305 4301 1
4309 4306 4301 2
4310 4304 4303 1
4311 4307 4304 1
4312 4308 4304 2
4313 4313 4316 1
4314 4317 4313 1
4315 4313 4323 1
4316 4313 4324 1
4317 4314 4316 1
4318 4331 4314 1
4319 4314 4325 1
4320 4314 4326 1
4321 4315 4316 1
4322 4319 4315 1
4323 4320 4315 2
4324 4318 4317 1
4325 4317 4328 1
4326 4321 4318 1
4327 4322 4318 2
4328 4327 4330 1
4329 4331 4327 1
4330 4327 4337 1
4331 4327 4338 1
4332 4328 4330 1
4333 4328 4339 1
4334 4328 4340 1
4335 4329 4330 1
4336 4333 4329 1
4337 4334 4329 2
4338 4332 4331 1
4339 4335 4332 1
4340 4336 4332 2
4341 4341 4344 1
4342 4345 4341 1
4343 4341 4351 1
4344 4341 4352 1
4345 4342 4344 1
4346 4359 4342 1
4347 4342 4353 1
4348 4342 4354 1
4349 4343 4344 1
4350 4347 4343 1
4351 4348 4343 2
4352 4346 4345 1
4353 4345 4356 1
4354 4349 4346 1
4355 4350 4346 2
4356 4355 4358 1
4357 4359 4355 1
4358 4355 4365 1
4359 4355 4366 1
4360 4356 4358 1
4361 4356 4367 1
4362 4356 4368 1
4363 4357 4358 1
4364 4361 4357 1
4365 4362 4357 2
4366 4360 4359 1
4367 4363 4360 1
4368 4364 4360 2
4369 4369 4372 1
4370 4373 4369 1
4371 4369 4379 1
4372 4369 4380 1
4373 4370 4372 1
4374 4387 4370 1
4375 4370 4381 1
4376 4370 4382 1
4377 4371 4372 1
4378 4375 4371 1
4379 4376 4371 2
4380 4374 4373 1
4381 4373 4384 1
4382 4377 4374 1
4383 4378 4374 2
4384 4383 4386 1
4385 4387 4383 1
4386 4383 4393 1
4387 4383 4394 1
4388 4384 4386 1
4389 4384 4395 1
4390 4384 4396 1
4391 4385 4386 1
4392 4389 4385 1
4393 4390 4385 2
4394 4388 4387 1
4395 4391 4388 1
4396 4392 4388 2
4397 4397 4400 1
4398 4401 4397 1
4399 4397 4407 1
4400 4397 4408 1
4401 4398 4400 1
4402 4415 4398 1
4403 4398 4409 1
4404 4398 4410 1
4405 4399 4400 1
4406 4403 4399 1
4407 4404 4399 2
4408 4402 4401 1
4409 4401 4412 1
4410 4405 4402 1
4411 4406 4402 2
4412 4411 4414 1
4413 4415 4411 1
4414 4411 4421 1
4415 4411 4422 1
4416 4412 4414 1
4417 4412 4423 1
4418 4412 4424 1
4419 4413 4414 1
4420 4417 4413 1
4421 4418 4413 2
4422 4416 4415 1
4423 4419 4416 1
4424 4420 4416 2
4425 4425 4428 1
4426 4429 4425 1
4427 4425 4435 1
4428 4425 4436 1
4429 4426 4428 1
4430 4443 4426 1
4431 4426 4437 1
4432 4426 4438 1
4433 4427 4428 1
4434 4431 4427 1
4435 4432 4427 2
4436 4430 4429 1
4437 4429 4440 1
4438 4433 4430 1
4439 4434 4430 2
4440 4439 4442 1
4441 4443 4439 1
4442 4439 4449 1
4443 4439 4450 1
4444 4440 4442 1
4445 4440 4451 1
4446 4440 4452 1
4447 4441 4442 1
4448 4445 4441 1
4449 4446 4441 2
4450 4444 4443 1
4451 4447 4444 1
4452 4448 4444 2
4453 4453 4456 1
4454 4457 4453 1
4455 4453 4463 1
4456 4453 4464 1
4457 4454 4456 1
4458 4471 4454 1
4459 4454 4465 1
4460 4454 4466 1
4461 4455 4456 1
4462 4459 4455 1
4463 4460 4455 2
4464 4458 4457 1
4465 4457 4468 1
4466 4461 4458 1
4467 4462 4458 2
4468 4467 4470 1
4469 4471 4467 1
4470 4467 4477 1
4471 4467 4478 1
4472 4468 4470 1
4473 4468 4479 1
4474 4468 4480 1
4475 4469 4470 1
4476 4473 4469 1
4477 4474 4469 2
4478 4472 4471 1
4479 4475 4472 1
4480 4476 4472 2
4481 4481 4484 1
4482 4485 4481 1
4483 4481 4491 1
4484 4481 4492 1
4485 4482 4484 1
4486 4499 4482 1
4487 4482 4493 1
4488 4482 4494 1
4489 4483 4484 1
4490 4487 4483 1
4491 4488 4483 2
4492 4486 4485 1
4493 4485 4496 1
4494 4489 4486 1
4495 4490 4486 2
4496 4495 4498 1
4497 4499 4495 1
4498 4495 4505 1
4499 4495 4506 1
4500 4496 4498 1
4501 4496 4507 1
4502 4496 4508 1
4503 4497 4498 1
4504 4501 4497 1
4505 4502 4497 2
4506 4500 4499 1
4507 4503 4500 1
4508 4504 4500 2
4509 4509 4512 1
4510 4513 4509 1
4511 4509 4519 1
4512 4509 4520 1
4513 4510 4512 1
4514 4527 4510 1
4515 4510 4521 1
4516 4510 4522 1
4517 4511 4512 1
4518 4515 4511 1
4519 4516 4511 2
4520 4514 4513 1
4521 4513 4524 1
4522 4517 4514 1
4523 4518 4514 2
4524 4523 4526 1
4525 4527 4523 1
4526 4523 4533 1
4527 4523 4534 1
4528 4524 4526 1
4529 4524 4535 1
4530 4524 4536 1
4531 4525 4526 1
4532 4529 4525 1
4533 4530 4525 2
4534 4528 4527 1
4535 4531 4528 1
4536 4532 4528 2
4537 4537 4540 1
4538 4541 4537 1
4539 4537 4547 1
4540 4537 4548 1
4541 4538 4540 1
4542 4555 4538 1
4543 4538 4549 1
4544 4538 4550 1
4545 4539 4540 1
4546 4543 4539 1
4547 4544 4539 2
4548 4542 4541 1
4549 4541 4552 1
4550 4545 4542 1
4551 4546 4542 2
4552 4551 4554 1
4553 4555 4551 1
4554 4551 4561 1
4555 4551 4562 1
4556 4552 4554 1
4557 4552 4563 1
4558 4552 4564 1
4559 4553 4554 1
4560 4557 4553 1
4561 4558 4553 2
4562 4556 4555 1
4563 4559 4556 1
4564 4560 4556 2
4565 4565 4568 1
4566 4569 4565 1
4567 4565 4575 1
4568 4565 4576 1
4569 4566 4568 1
4570 4583 4566 1
4571 4566 4577 1
4572 4566 4578 1
4573 4567 4568 1
4574 4571 4567 1
4575 4572 4567 2
4576 4570 4569 1
4577 4569 4580 1
4578 4573 4570 1
4579 4574 4570 2
4580 4579 4582 1
4581 4583 4579 1
4582 4579 4589 1
4583 4579 4590 1
4584 4580 4582 1
4585 4580 4591 1
4586 4580 4592 1
4587 4581 4582 1
4588 4585 4581 1
4589 4586 4581 2
4590 4584 4583 1
4591 4587 4584 1
4592 4588 4584 2
4593 4593 4596 1
4594 4597 4593 1
4595 4593 4603 1
4596 4593 4604 1
4597 4594 4596 1
4598 4611 4594 1
4599 4594 4605 1
4600 4594 4606 1
4601 4595 4596 1
4602 4599 4595 1
4603 4600 4595 2
4604 4598 4597 1
4605 4597 4608 1
4606 4601 4598 1
4607 4602 4598 2
4608 4607 4610 1
4609 4611 4607 1
4610 4607 4617 1
4611 4607 4618 1
4612 4608 4610 1
4613 4608 4619 1
4614 4608 4620 1
4615 4609 4610 1
4616 4613 4609 1
4617 4614 4609 2
4618 4612 4611 1
4619 4615 4612 1
4620 4616 4612 2
4621 4621 4624 1
4622 4625 4621 1
4623 4621 4631 1
4624 4621 4632 1
4625 4622 4624 1
4626 4639 4622 1
4627 4622 4633 1
4628 4622 4634 1
4629 4623 4624 1
4630 4627 4623 1
4631 4628 4623 2
4632 4626 4625 1
4633 4625 4636 1
4634 4629 4626 1
4635 4630 4626 2
4636 4635 4638 1
4637 4639 4635 1
4638 4635 4645 1
4639 4635 4646 1
4640 4636 4638 1
4641 4636 4647 1
4642 4636 4648 1
4643 4637 4638 1
4644 4641 4637 1
4645 4642 4637 2
4646 4640 4639 1
4647 4643 4640 1
4648 4644 4640 2
4649 4649 4652 1
4650 4653 4649 1
4651 4649 4659 1
4652 4649 4660 1
4653 4650 4652 1
4654 4667 4650 1
4655 4650 4661 1
4656 4650 4662 1
4657 4651 4652 1
4658 4655 4651 1
4659 4656 4651 2
4660 4654 4653 1
4661 4653 4664 1
4662 4657 4654 1
4663 4658 4654 2
4664 4663 4666 1
4665 4667 4663 1
4666 4663 4673 1
4667 4663 4674 1
4668 4664 4666 1
4669 4664 4675 1
4670 4664 4676 1
4671 4665 4666 1
4672 4669 4665 1
4673 4670 4665 2
4674 4668 4667 1
4675 4671 4668 1
4676 4672 4668 2
4677 4677 4680 1
4678 4681 4677 1
4679 4677 4687 1
4680 4677 4688 1
4681 4678 4680 1
4682 4695 4678 1
4683 4678 4689 1
4684 4678 4690 1
4685 4679 4680 1
4686 4683 4679 1
4687 4684 4679 2
4688 4682 4681 1
4689 4681 4692 1
4690 4685 4682 1
4691 4686 4682 2
4692 4691 4694 1
4693 4695 4691 1
4694 4691 4701 1
4695 4691 4702 1
4696 4692 4694 1
4697 4692 4703 1
4698 4692 4704 1
4699 4693 4694 1
4700 4697 4693 1
4701 4698 4693 2
4702 4696 4695 1
4703 4699 4696 1
4704 4700 4696 2
4705 4705 4708 1
4706 4709 4705 1
4707 4705 4715 1
4708 4705 4716 1
4709 4706 4708 1
4710 4723 4706 1
4711 4706 4717 1
4712 4706 4718 1
4713 4707 4708 1
4714 4711 4707 1
4715 4712 4707 2
4716 4710 4709 1
4717 4709 4720 1
4718 4713 4710 1
4719 4714 4710 2
4720 4719 4722 1
4721 4723 4719 1
4722 4719 4729 1
4723 4719 4730 1
4724 4720 4722 1
4725 4720 4731 1
4726 4720 4732 1
4727 4721 4722 1
4728 4725 4721 1
4729 4726 4721 2
4730 4724 4723 1
4731 4727 4724 1
4732 4728 4724 2
4733 4733 4736 1
4734 4737 4733 1
4735 4733 4743 1
4736 4733 4744 1
4737 4734 4736 1
4738 4751 4734 1
4739 4734 4745 1
4740 4734 4746 1
4741 4735 4736 1
4742 4739 4735 1
4743 4740 4735 2
4744 4738 4737 1
4745 4737 4748 1
4746 4741 4738 1
4747 4742 4738 2
4748 4747 4750 1
4749 4751 4747 1
4750 4747 4757 1
4751 4747 4758 1
4752 4748 4750 1
4753 4748 4759 1
4754 4748 4760 1
4755 4749 4750 1
4756 4753 4749 1
4757 4754 4749 2
4758 4752 4751 1
4759 4755 4752 1
4760 4756 4752 2
4761 4761 4764 1
4762 4765 4761 1
4763 4761 4771 1
4764 4761 4772 1
4765 4762 4764 1
4766 4779 4762 1
4767 4762 4773 1
4768 4762 4774 1
4769 4763 4764 1
4770 4767 4763 1
4771 4768 4763 2
4772 4766 4765 1
4773 4765 4776 1
4774 4769 4766 1
4775 4770 4766 2
4776 4775 4778 1
4777 4779 4775 1
4778 4775 4785 1
4779 4775 4786 1
4780 4776 4778 1
4781 4776 4787 1
4782 4776 4788 1
4783 4777 4778 1
4784 4781 4777 1
4785 4782 4777 2
4786 4780 4779 1
4787 4783 4780 1
4788 4784 4780 2
4789 4789 4792 1
4790 4793 4789 1
4791 4789 4799 1
4792 4789 4800 1
4793 4790 4792 1
4794 4807 4790 1
4795 4790 4801 1
4796 4790 4802 1
4797 4791 4792 1
4798 4795 4791 1
4799 4796 4791 2
4800 4794 4793 1
4801 4793 4804 1
4802 4797 4794 1
4803 4798 4794 2
4804 4803 4806 1
4805 4807 4803 1
4806 4803 4813 1
4807 4803 4814 1
4808 4804 4806 1
4809 4804 4815 1
4810 4804 4816 1
4811 4805 4806 1
4812 4809 4805 1
4813 4810 4805 2
4814 4808 4807 1
4815 4811 4808 1
4816 4812 4808 2
4817 4817 4820 1
4818 4821 4817 1
4819 4817 4827 1
4820 4817 4828 1
4821 4818 4820 1
4822 4835 4818 1
4823 4818 4829 1
4824 4818 4830 1
4825 4819 4820 1
4826 4823 4819 1
4827 4824 4819 2
4828 4822 4821 1
4829 4821 4832 1
4830 4825 4822 1
4831 4826 4822 2
4832 4831 4834 1
4833 4835 4831 1
4834 4831 4841 1
4835 4831 4842 1
4836 4832 4834 1
4837 4832 4843 1
4838 4832 4844 1
4839 4833 4834 1
4840 4837 4833 1
4841 4838 4833 2
4842 4836 4835 1
4843 4839 4836 1
4844 4840 4836 2
4845 4845 4848 1
4846 4849 4845 1
4847 4845 4855 1
4848 4845 4856 1
4849 4846 4848 1
4850 4863 4846 1
4851 4846 4857 1
4852 4846 4858 1
4853 4847 4848 1
4854 4851 4847 1
4855 4852 4847 2
4856 4850 4849 1
4857 4849 4860 1
4858 4853 4850 1
4859 4854 4850 2
4860 4859 4862 1
4861 4863 4859 1
4862 4859 4869 1
4863 4859 4870 1
4864 4860 4862 1
4865 4860 4871 1
4866 4860 4872 1
4867 4861 4862 1
4868 4865 4861 1
4869 4866 4861 2
4870 4864 4863 1
4871 4867 4864 1
4872 4868 4864 2
4873 4873 4876 1
4874 4877 4873 1
4875 4873 4883 1
4876 4873 4884 1
4877 4874 4876 1
4878 4891 4874 1
4879 4874 4885 1
4880 4874 4886 1
4881 4875 4876 1
4882 4879 4875 1
4883 4880 4875 2
4884 4878 4877 1
4885 4877 4888 1
4886 4881 4878 1
4887 4882 4878 2
4888 4887 4890 1
4889 4891 4887 1
4890 4887 4897 1
4891 4887 4898 1
4892 4888 4890 1
4893 4888 4899 1
4894 4888 4900 1
4895 4889 4890 1
4896 4893 4889 1
4897 4894 4889 2
4898 4892 4891 1
4899 4895 4892 1
4900 4896 4892 2
4901 4901 4904 1
4902 4905 4901 1
4903 4901 4911 1
4904 4901 4912 1
4905 4902 4904 1
4906 4919 4902 1
4907 4902 4913 1
4908 4902 4914 1
4909 4903 4904 1
4910 4907 4903 1
4911 4908 4903 2
4912 4906 4905 1
4913 4905 4916 1
4914 4909 4906 1
4915 4910 4906 2
4916 4915 4918 1
4917 4919 4915 1
4918 4915 4925 1
4919 4915 4926 1
4920 4916 4918 1
4921 4916 4927 1
4922 4916 4928 1
4923 4917 4918 1
4924 4921 4917 1
4925 4922 4917 2
4926 4920 4919 1
4927 4923 4920 1
4928 4924 4920 2
4929 4929 4932 1
4930 4933 4929 1
4931 4929 4939 1
4932 4929 4940 1
4933 4930 4932 1
4934 4947 4930 1
4935 4930 4941 1
4936 4930 4942 1
4937 4931 4932 1
4938 4935 4931 1
4939 4936 4931 2
4940 4934 4933 1
4941 4933 4944 1
4942 4937 4934 1
4943 4938 4934 2
4944 4943 4946 1
4945 4947 4943 1
4946 4943 4953 1
4947 4943 4954 1
4948 4944 4946 1
4949 4944 4955 1
4950 4944 4956 1
4951 4945 4946 1
4952 4949 4945 1
4953 4950 4945 2
4954 4948 4947 1
4955 4951 4948 1
4956 4952 4948 2
4957 4957 4960 1
4958 4961 4957 1
4959 4957 4967 1
4960 4957 4968 1
4961 4958 4960 1
4962 4975 4958 1
4963 4958 4969 1
4964 4958 4970 1
4965 4959 4960 1
4966 4963 4959 1
4967 4964 4959 2
4968 4962 4961 1
4969 4961 4972 1
4970 4965 4962 1
4971 4966 4962 2
4972 4971 4974 1
4973 4975 4971 1
4974 4971 4981 1
4975 4971 4982 1
4976 4972 4974 1
4977 4972 4983 1
4978 4972 4984 1
4979 4973 4974 1
4980 4977 4973 1
4981 4978 4973 2
4982 4976 4975 1
4983 4979 4976 1
4984 4980 4976 2
4985 4985 4988 1
4986 4989 4985 1
4987 4985 4995 1
4988 4985 4996 1
4989 4986 4988 1
4990 5003 4986 1
4991 4986 4997 1
4992 4986 4998 1
4993 4987 4988 1
4994 4991 4987 1
4995 4992 4987 2
4996 4990 4989 1
4997 4989 5000 1
4998 4993 4990 1
4999 4994 4990 2
5000 4999 5002 1
5001 5003 4999 1
5002 4999 5009 1
5003 4999 5010 1
5004 5000 5002 1
5005 5000 5011 1
5006 5000 5012 1
5007 5001 5002 1
5008 5005 5001 1
5009 5006 5001 2
5010 5004 5003 1
5011 5007 5004 1
5012 5008 5004 2
5013 5013 5016 1
5014 5017 5013 1
5015 5013 5023 1
5016 5013 5024 1
5017 5014 5016 1
5018 5031 5014 1
5019 5014 5025 1
5020 5014 5026 1
5021 5015 5016 1
5022 5019 5015 1
5023 5020 5015 2
5024 5018 5017 1
5025 5017 5028 1
5026 5021 5018 1
5027 5022 5018 2
5028 5027 5030 1
5029 5031 5027 1
5030 5027 5037 1
5031 5027 5038 1
5032 5028 5030 1
5033 5028 5039 1
5034 5028 5040 1
5035 5029 5030 1
5036 5033 5029 1
5037 5034 5029 2
5038 5032 5031 1
5039 5035 5032 1
5040 5036 5032 2
5041 5041 5044 1
5042 5045 5041 1
5043 5041 5051 1
5044 5041 5052 1
5045 5042 5044 1
5046 5059 5042 1
5047 5042 5053 1
5048 5042 5054 1
5049 5043 5044 1
5050 5047 5043 1
5051 5048 5043 2
5052 5046 5045 1
5053 5045 5056 1
5054 5049 5046 1
5055 5050 5046 2
5056 5055 5058 1
5057 5059 5055 1
5058 5055 5065 1
5059 5055 5066 1
5060 5056 5058 1
5061 5056 5067 1
5062 5056 5068 1
5063 5057 5058 1
5064 5061 5057 1
5065 5062 5057 2
5066 5060 5059 1
5067 5063 5060 1
5068 5064 5060 2
5069 5069 5072 1
5070 5073 5069 1
5071 5069 5079 1
5072 5069 5080 1
5073 5070 5072 1
5074 5087 5070 1
5075 5070 5081 1
5076 5070 5082 1
5077 5071 5072 1
5078 5075 5071 1
5079 5076 5071 2
5080 5074 5073 1
5081 5073 5084 1
5082 5077 5074 1
5083 5078 5074 2
5084 5083 5086 1
5085 5087 5083 1
5086 5083 5093 1
5087 5083 5094 1
5088 5084 5086 1
5089 5084 5095 1
5090 5084 5096 1
5091 5085 5086 1
5092 5089 5085 1
5093 5090 5085 2
5094 5088 5087 1
5095 5091 5088 1
5096 5092 5088 2
5097 5097 5100 1
5098 5101 5097 1
5099 5097 5107 1
5100 5097 5108 1
5101 5098 5100 1
5102 5115 5098 1
5103 5098 5109 1
5104 5098 5110 1
5105 5099 5100 1
5106 5103 5099 1
5107 5104 5099 2
5108 5102 5101 1
5109 5101 5112 1
5110 5105 5102 1
5111 5106 5102 2
5112 5111 5114 1
5113 5115 5111 1
5114 5111 5121 1
5115 5111 5122 1
5116 5112 5114 1
5117 5112 5123 1
5118 5112 5124 1
5119 5113 5114 1
5120 5117 5113 1
5121 5118 5113 2
5122 5116 5115 1
5123 5119 5116 1
5124 5120 5116 2
5125 5125 5128 1
5126 5129 5125 1
5127 5125 5135 1
5128 5125 5136 1
5129 5126 5128 1
5130 5143 5126 1
5131 5126 5137 1
5132 5126 5138 1
5133 5127 5128 1
5134 5131 5127 1
5135 5132 5127 2
5136 5130 5129 1
5137 5129 5140 1
5138 5133 5130 1
5139 5134 5130 2
5140 5139 5142 1
5141 5143 5139 1
5142 5139 5149 1
5143 5139 5150 1
5144 5140 5142 1
5145 5140 5151 1
5146 5140 5152 1
5147 5141 5142 1
5148 5145 5141 1
5149 5146 5141 2
5150 5144 5143 1
5151 5147 5144 1
5152 5148 5144 2
5153 5153 5156 1
5154 5157 5153 1
5155 5153 5163 1
5156 5153 5164 1
5157 5154 5156 1
5158 5171 5154 1
5159 5154 5165 1
5160 5154 5166 1
5161 5155 5156 1
5162 5159 5155 1
5163 5160 5155 2
5164 5158 5157 1
5165 5157 5168 1
5166 5161 5158 1
5167 5162 5158 2
5168 5167 5170 1
5169 5171 5167 1
5170 5167 5177 1
5171 5167 5178 1
5172 5168 5170 1
5173 5168 5179 1
5174 5168 5180 1
5175 5169 5170 1
5176 5173 5169 1
5177 5174 5169 2
5178 5172 5171 1
5179 5175 5172 1
5180 5176 5172 2
5181 5181 5184 1
5182 5185 5181 1
5183 5181 5191 1
5184 5181 5192 1
5185 5182 5184 1
5186 5199 5182 1
5187 5182 5193 1
5188 5182 5194 1
5189 5183 5184 1
5190 5187 5183 1
5191 5188 5183 2
5192 5186 5185 1
5193 5185 5196 1
5194 5189 5186 1
5195 5190 5186 2
5196 5195 5198 1
5197 5199 5195 1
5198 5195 5205 1
5199 5195 5206 1
5200 5196 5198 1
5201 5196 5207 1
5202 5196 5208 1
5203 5197 5198 1
5204 5201 5197 1
5205 5202 5197 2
5206 5200 5199 1
5207 5203 5200 1
5208 5204 5200 2
5209 5209 5212 1
5210 5213 5209 1
5211 5209 5219 1
5212 5209 5220 1
5213 5210 5212 1
5214 5227 5210 1
5215 5210 5221 1
5216 5210 5222 1
5217 5211 5212 1
5218 5215 5211 1
5219 5216 5211 2
5220 5214 5213 1
5221 5213 5224 1
5222 5217 5214 1
5223 5218 5214 2
5224 5223 5226 1
5225 5227 5223 1
5226 5223 5233 1
5227 5223 5234 1
5228 5224 5226 1
5229 5224 5235 1
5230 5224 5236 1
5231 5225 5226 1
5232 5229 5225 1
5233 5230 5225 2
5234 5228 5227 1
5235 5231 5228 1
5236 5232 5228 2
5237 5237 5240 1
5238 5241 5237 1
5239 5237 5247 1
5240 5237 5248 1
5241 5238 5240 1
5242 5255 5238 1
5243 5238 5249 1
5244 5238 5250 1
5245 5239 5240 1
5246 5243 5239 1
5247 5244 5239 2
5248 5242 5241 1
5249 5241 5252 1
5250 5245 5242 1
5251 5246 5242 2
5252 5251 5254 1
5253 5255 5251 1
5254 5251 5261 1
5255 5251 5262 1
5256 5252 5254 1
5257 5252 5263 1
5258 5252 5264 1
5259 5253 5254 1
5260 5257 5253 1
5261 5258 5253 2
5262 5256 5255 1
5263 5259 5256 1
5264 5260 5256 2
5265 5265 5268 1
5266 5269 5265 1
5267 5265 5275 1
5268 5265 5276 1
5269 5266 5268 1
5270 5283 5266 1
5271 5266 5277 1
5272 5266 5278 1
5273 5267 5268 1
5274 5271 5267 1
5275 5272 5267 2
5276 5270 5269 1
5277 5269 5280 1
5278 5273 5270 1
5279 5274 5270 2
5280 5279 5282 1
5281 5283 5279 1
5282 5279 5289 1
5283 5279 5290 1
5284 5280 5282 1
5285 5280 5291 1
5286 5280 5292 1
5287 5281 5282 1
5288 5285 5281 1
5289 5286 5281 2
5290 5284 5283 1
5291 5287 5284 1
5292 5288 5284 2
5293 5293 5296 1
5294 5297 5293 1
5295 5293 5303 1
5296 5293 5304 1
5297 5294 5296 1
5298 5311 5294 1
5299 5294 5305 1
5300 5294 5306 1
5301 5295 5296 1
5302 5299 5295 1
5303 5300 5295 2
5304 5298 5297 1
5305 5297 5308 1
5306 5301 5298 1
5307 5302 5298 2
5308 5307 5310 1
5309 5311 5307 1
5310 5307 5317 1
5311 5307 5318 1
5312 5308 5310 1
5313 5308 5319 1
5314 5308 5320 1
5315 5309 5310 1
5316 5313 5309 1
5317 5314 5309 2
5318 5312 5311 1
5319 5315 5312 1
5320 5316 5312 2
5321 5321 5324 1
5322 5325 5321 1
5323 5321 5331 1
5324 5321 5332 1
5325 5322 5324 1
5326 5339 5322 1
5327 5322 5333 1
5328 5322 5334 1
5329 5323 5324 1
5330 5327 5323 1
5331 5328 5323 2
5332 5326 5325 1
5333 5325 5336 1
5334 5329 5326 1
5335 5330 5326 2
5336 5335 5338 1
5337 5339 5335 1
5338 5335 5345 1
5339 5335 5346 1
5340 5336 5338 1
5341 5336 5347 1
5342 5336 5348 1
5343 5337 5338 1
5344 5341 5337 1
5345 5342 5337 2
5346 5340 5339 1
5347 5343 5340 1
5348 5344 5340 2
5349 5349 5352 1
5350 5353 5349 1
5351 5349 5359 1
5352 5349 5360 1
5353 5350 5352 1
5354 5367 5350 1
5355 5350 5361 1
5356 5350 5362 1
5357 5351 5352 1
5358 5355 5351 1
5359 5356 5351 2
5360 5354 5353 1
5361 5353 5364 1
5362 5357 5354 1
5363 5358 5354 2
5364 5363 5366 1
5365 5367 5363 1
5366 5363 5373 1
5367 5363 5374 1
5368 5364 5366 1
5369 5364 5375 1
5370 5364 5376 1
5371 5365 5366 1
5372 5369 5365 1
5373 5370 5365 2
5374 5368 5367 1
5375 5371 5368 1
5376 5372 5368 2
5377 5377 5380 1
5378 5381 5377 1
5379 5377 5387 1
5380 5377 5388 1
5381 5378 5380 1
5382 5395 5378 1
5383 5378 5389 1
5384 5378 5390 1
5385 5379 5380 1
5386 5383 5379 1
5387 5384 5379 2
5388 5382 5381 1
5389 5381 5392 1
5390 5385 5382 1
5391 5386 5382 2
5392 5391 5394 1
5393 5395 5391 1
5394 5391 5401 1
5395 5391 5402 1
5396 5392 5394 1
5397 5392 5403 1
5398 5392 5404 1
5399 5393 5394 1
5400 5397 5393 1
5401 5398 5393 2
5402 5396 5395 1
5403 5399 5396 1
5404 5400 5396 2
5405 5405 5408 1
5406 5409 5405 1
5407 5405 5415 1
5408 5405 5416 1
5409 5406 5408 1
5410 5423 5406 1
5411 5406 5417 1
5412 5406 5418 1
5413 5407 5408 1
5414 5411 5407 1
5415 5412 5407 2
5416 5410 5409 1
5417 5409 5420 1
5418 5413 5410 1
5419 5414 5410 2
5420 5419 5422 1
5421 5423 5419 1
5422 5419 5429 1
5423 5419 5430 1
5424 5420 5422 1
5425 5420 5431 1
5426 5420 5432 1
5427 5421 5422 1
5428 5425 5421 1
5429 5426 5421 2
5430 5424 5423 1
5431 5427 5424 1
5432 5428 5424 2
5433 5433 5436 1
5434 5437 5433 1
5435 5433 5443 1
5436 5433 5444 1
5437 5434 5436 1
5438 5451 5434 1
5439 5434 5445 1
5440 5434 5446 1
5441 5435 5436 1
5442 5439 5435 1
5443 5440 5435 2
5444 5438 5437 1
5445 5437 5448 1
5446 5441 5438 1
5447 5442 5438 2
5448 5447 5450 1
5449 5451 5447 1
5450 5447 5457 1
5451 5447 5458 1
5452 5448 5450 1
5453 5448 5459 1
5454 5448 5460 1
5455 5449 5450 1
5456 5453 5449 1
5457 5454 5449 2
5458 5452 5451 1
5459 5455 5452 1
5460 5456 5452 2
5461 5461 5464 1
5462 5465 5461 1
5463 5461 5471 1
5464 5461 5472 1
5465 5462 5464 1
5466 5479 5462 1
5467 5462 5473 1
5468 5462 5474 1
5469 5463 5464 1
5470 5467 5463 1
5471 5468 5463 2
5472 5466 5465 1
5473 5465 5476 1
5474 5469 5466 1
5475 5470 5466 2
5476 5475 5478 1
5477 5479 5475 1
5478 5475 5485 1
5479 5475 5486 1
5480 5476 5478 1
5481 5476 5487 1
5482 5476 5488 1
5483 5477 5478 1
5484 5481 5477 1
5485 5482 5477 2
5486 5480 5479 1
5487 5483 5480 1
5488 5484 5480 2
5489 5489 5492 1
5490 5493 5489 1
5491 5489 5499 1
5492 5489 5500 1
5493 5490 5492 1
5494 5507 5490 1
5495 5490 5501 1
5496 5490 5502 1
5497 5491 5492 1
5498 5495 5491 1
5499 5496 5491 2
5500 5494 5493 1
5501 5493 5504 1
5502 5497 5494 1
5503 5498 5494 2
5504 5503 5506 1
5505 5507 5503 1
5506 5503 5513 1
5507 5503 5514 1
5508 5504 5506 1
5509 5504 5515 1
5510 5504 5516 1
5511 5505 5506 1
5512 5509 5505 1
5513 5510 5505 2
5514 5508 5507 1
5515 5511 5508 1
5516 5512 5508 2
5517 5517 5520 1
5518 5521 5517 1
5519 5517 5527 1
5520 5517 5528 1
5521 5518 5520 1
5522 5535 5518 1
5523 5518 5529 1
5524 5518 5530 1
5525 5519 5520 1
5526 5523 5519 1
5527 5524 5519 2
5528 5522 5521 1
5529 5521 5532 1
5530 5525 5522 1
5531 5526 5522 2
5532 5531 5534 1
5533 5535 5531 1
5534 5531 5541 1
5535 5531 5542 1
5536 5532 5534 1
5537 5532 5543 1
5538 5532 5544 1
5539 5533 5534 1
5540 5537 5533 1
5541 5538 5533 2
5542 5536 5535 1
5543 5539 5536 1
5544 5540 5536 2
5545 5545 5548 1
5546 5549 5545 1
5547 5545 5555 1
5548 5545 5556 1
5549 5546 5548 1
5550 5563 5546 1
5551 5546 5557 1
5552 5546 5558 1
5553 5547 5548 1
5554 5551 5547 1
5555 5552 5547 2
5556 5550 5549 1
5557 5549 5560 1
5558 5553 5550 1
5559 5554 5550 2
5560 5559 5562 1
5561 5563 5559 1
5562 5559 5569 1
5563 5559 5570 1
5564 5560 5562 1
5565 5560 5571 1
5566 5560 5572 1
5567 5561 5562 1
5568 5565 5561 1
5569 5566 5561 2
5570 5564 5563 1
5571 5567 5564 1
5572 5568 5564 2
5573 5573 5576 1
5574 5577 5573 1
5575 5573 5583 1
5576 5573 5584 1
5577 5574 5576 1
5578 5591 5574 1
5579 5574 5585 1
5580 5574 5586 1
5581 5575 5576 1
5582 5579 5575 1
5583 5580 5575 2
5584 5578 5577 1
5585 5577 5588 1
5586 5581 5578 1
5587 5582 5578 2
5588 5587 5590 1
5589 5591 5587 1
5590 5587 5597 1
5591 5587 5598 1
5592 5588 5590 1
5593 5588 5599 1
5594 5588 5600 1
5595 5589 5590 1
5596 5593 5589 1
5597 5594 5589 2
5598 5592 5591 1
5599 5595 5592 1
5600 5596 5592 2
5601 5601 5604 1
5602 5605 5601 1
5603 5601 5611 1
5604 5601 5612 1
5605 5602 5604 1
5606 5619 5602 1
5607 5602 5613 1
5608 5602 5614 1
5609 5603 5604 1
5610 5607 5603 1
5611 5608 5603 2
5612 5606 5605 1
5613 5605 5616 1
5614 5609 5606 1
5615 5610 5606 2
5616 5615 5618 1
5617 5619 5615 1
5618 5615 5625 1
5619 5615 5626 1
5620 5616 5618 1
5621 5616 5627 1
5622 5616 5628 1
5623 5617 5618 1
5624 5621 5617 1
5625 5622 5617 2
5626 5620 5619 1
5627 5623 5620 1
5628 5624 5620 2
5629 5629 5632 1
5630 5633 5629 1
5631 5629 5639 1
5632 5629 5640 1
5633 5630 5632 1
5634 5647 5630 1
5635 5630 5641 1
5636 5630 5642 1
5637 5631 5632 1
5638 5635 5631 1
5639 5636 5631 2
5640 5634 5633 1
5641 5633 5644 1
5642 5637 5634 1
5643 5638 5634 2
5644 5643 5646 1
5645 5647 5643 1
5646 5643 5653 1
5647 5643 5654 1
5648 5644 5646 1
5649 5644 5655 1
5650 5644 5656 1
5651 5645 5646 1
5652 5649 5645 1
5653 5650 5645 2
5654 5648 5647 1
5655 5651 5648 1
5656 5652 5648 2
5657 5657 5660 1
5658 5661 5657 1
5659 5657 5667 1
5660 5657 5668 1
5661 5658 5660 1
5662 5675 5658 1
5663 5658 5669 1
5664 5658 5670 1
5665 5659 5660 1
5666 5663 5659 1
5667 5664 5659 2
5668 5662 5661 1
5669 5661 5672 1
5670 5665 5662 1
5671 5666 5662 2
5672 5671 5674 1
5673 5675 5671 1
5674 5671 5681 1
5675 5671 5682 1
5676 5672 5674 1
5677 5672 5683 1
5678 5672 5684 1
5679 5673 5674 1
5680 5677 5673 1
5681 5678 5673 2
5682 5676 5675 1
5683 5679 5676 1
5684 5680 5676 2
5685 5685 5688 1
5686 5689 5685 1
5687 5685 5695 1
5688 5685 5696 1
5689 5686 5688 1
5690 5703 5686 1
5691 5686 5697 1
5692 5686 5698 1
5693 5687 5688 1
5694 5691 5687 1
5695 5692 5687 2
5696 5690 5689 1
5697 5689 5700 1
5698 5693 5690 1
5699 5694 5690 2
5700 5699 5702 1
5701 5703 5699 1
5702 5699 5709 1
5703 5699 5710 1
5704 5700 5702 1
5705 5700 5711 1
5706 5700 5712 1
5707 5701 5702 1
5708 5705 5701 1
5709 5706 5701 2
5710 5704 5703 1
5711 5707 5704 1
5712 5708 5704 2
5713 5713 5716 1
5714 5717 5713 1
5715 5713 5723 1
5716 5713 5724 1
5717 5714 5716 1
5718 5731 5714 1
5719 5714 5725 1
5720 5714 5726 1
5721 5715 5716 1
5722 5719 5715 1
5723 5720 5715 2
5724 5718 5717 1
5725 5717 5728 1
5726 5721 5718 1
5727 5722 5718 2
5728 5727 5730 1
5729 5731 5727 1
5730 5727 5737 1
5731 5727 5738 1
5732 5728 5730 1
5733 5728 5739 1
5734 5728 5740 1
5735 5729 5730 1
5736 5733 5729 1
5737 5734 5729 2
5738 5732 5731 1
5739 5735 5732 1
5740 5736 5732 2
5741 5741 5744 1
5742 5745 5741 1
5743 5741 5751 1
5744 5741 5752 1
5745 5742 5744 1
5746 5759 5742 1
5747 5742 5753 1
5748 5742 5754 1
5749 5743 5744 1
5750 5747 5743 1
5751 5748 5743 2
5752 5746 5745 1
5753 5745 5756 1
5754 5749 5746 1
5755 5750 5746 2
5756 5755 5758 1
5757 5759 5755 1
5758 5755 5765 1
5759 5755 5766 1
5760 5756 5758 1
5761 5756 5767 1
5762 5756 5768 1
5763 5757 5758 1
5764 5761 5757 1
5765 5762 5757 2
5766 5760 5759 1
5767 5763 5760 1
5768 5764 5760 2
5769 5769 5772 1
5770 5773 5769 1
5771 5769 5779 1
5772 5769 5780 1
5773 5770 5772 1
5774 5787 5770 1
5775 5770 5781 1
5776 5770 5782 1
5777 5771 5772 1
5778 5775 5771 1
5779 5776 5771 2
5780 5774 5773 1
5781 5773 5784 1
5782 5777 5774 1
5783 5778 5774 2
5784 5783 5786 1
5785 5787 5783 1
5786 5783 5793 1
5787 5783 5794 1
5788 5784 5786 1
5789 5784 5795 1
5790 5784 5796 1
5791 5785 5786 1
5792 5789 5785 1
5793 5790 5785 2
5794 5788 5787 1
5795 5791 5788 1
5796 5792 5788 2
5797 5797 5800 1
5798 5801 5797 1
5799 5797 5807 1
5800 5797 5808 1
5801 5798 5800 1
5802 5815 5798 1
5803 5798 5809 1
5804 5798 5810 1
5805 5799 5800 1
5806 5803 5799 1
5807 5804 5799 2
5808 5802 5801 1
5809 5801 5812 1
5810 5805 5802 1
5811 5806 5802 2
5812 5811 5814 1
5813 5815 5811 1
5814 5811 5821 1
5815 5811 5822 1
5816 5812 5814 1
5817 5812 5823 1
5818 5812 5824 1
5819 5813 5814 1
5820 5817 5813 1
5821 5818 5813 2
5822 5816 5815 1
5823 5819 5816 1
5824 5820 5816 2
5825 5825 5828 1
5826 5829 5825 1
5827 5825 5835 1
5828 5825 5836 1
5829 5826 5828 1
5830 5843 5826 1
5831 5826 5837 1
5832 5826 5838 1
5833 5827 5828 1
5834 5831 5827 1
5835 5832 5827 2
5836 5830 5829 1
5837 5829 5840 1
5838 5833 5830 1
5839 5834 5830 2
5840 5839 5842 1
5841 5843 5839 1
5842 5839 5849 1
5843 5839 5850 1
5844 5840 5842 1
5845 5840 5851 1
5846 5840 5852 1
5847 5841 5842 1
5848 5845 5841 1
5849 5846 5841 2
5850 5844 5843 1
5851 5847 5844 1
5852 5848 5844 2
5853 5853 5856 1
5854 5857 5853 1
5855 5853 5863 1
5856 5853 5864 1
5857 5854 5856 1
5858 5871 5854 1
5859 5854 5865 1
5860 5854 5866 1
5861 5855 5856 1
5862 5859 5855 1
5863 5860 5855 2
5864 5858 5857 1
5865 5857 5868 1
5866 5861 5858 1
5867 5862 5858 2
5868 5867 5870 1
5869 5871 5867 1
5870 5867 5877 1
5871 5867 5878 1
5872 5868 5870 1
5873 5868 5879 1
5874 5868 5880 1
5875 5869 5870 1
5876 5873 5869 1
5877 5874 5869 2
5878 5872 5871 1
5879 5875 5872 1
5880 5876 5872 2
5881 5881 5884 1
5882 5885 5881 1
5883 5881 5891 1
5884 5881 5892 1
5885 5882 5884 1
5886 5899 5882 1
5887 5882 5893 1
5888 5882 5894 1
5889 5883 5884 1
5890 5887 5883 1
5891 5888 5883 2
5892 5886 5885 1
5893 5885 5896 1
5894 5889 5886 1
5895 5890 5886 2
5896 5895 5898 1
5897 5899 5895 1
5898 5895 5905 1
5899 5895 5906 1
5900 5896 5898 1
5901 5896 5907 1
5902 5896 5908 1
5903 5897 5898 1
5904 5901 5897 1
5905 5902 5897 2
5906 5900 5899 1
5907 5903 5900 1
5908 5904 5900 2
5909 5909 5912 1
5910 5913 5909 1
5911 5909 5919 1
5912 5909 5920 1
5913 5910 5912 1
5914 5927 5910 1
5915 5910 5921 1
5916 5910 5922 1
5917 5911 5912 1
5918 5915 5911 1
5919 5916 5911 2
5920 5914 5913 1
5921 5913 5924 1
5922 5917 5914 1
5923 5918 5914 2
5924 5923 5926 1
5925 5927 5923 1
5926 5923 5933 1
5927 5923 5934 1
5928 5924 5926 1
5929 5924 5935 1
5930 5924 5936 1
5931 5925 5926 1
5932 5929 5925 1
5933 5930 5925 2
5934 5928 5927 1
5935 5931 5928 1
5936 5932 5928 2
5937 5937 5940 1
5938 5941 5937 1
5939 5937 5947 1
5940 5937 5948 1
5941 5938 5940 1
5942 5955 5938 1
5943 5938 5949 1
5944 5938 5950 1
5945 5939 5940 1
5946 5943 5939 1
5947 5944 5939 2
5948 5942 5941 1
5949 5941 5952 1
5950 5945 5942 1
5951 5946 5942 2
5952 5951 5954 1
5953 5955 5951 1
5954 5951 5961 1
5955 5951 5962 1
5956 5952 5954 1
5957 5952 5963 1
5958 5952 5964 1
5959 5953 5954 1
5960 5957 5953 1
5961 5958 5953 2
5962 5956 5955 1
5963 5959 5956 1
5964 5960 5956 2
5965 5965 5968 1
5966 5969 5965 1
5967 5965 5975 1
5968 5965 5976 1
5969 5966 5968 1
5970 5983 5966 1
5971 5966 5977 1
5972 5966 5978 1
5973 5967 5968 1
5974 5971 5967 1
5975 5972 5967 2
5976 5970 5969 1
5977 5969 5980 1
5978 5973 5970 1
5979 5974 5970 2
5980 5979 5982 1
5981 5983 5979 1
5982 5979 5989 1
5983 5979 5990 1
5984 5980 5982 1
5985 5980 5991 1
5986 5980 5992 1
5987 5981 5982 1
5988 5985 5981 1
5989 5986 5981 2
5990 5984 5983 1
5991 5987 5984 1
5992 5988 5984 2
5993 5993 5996 1
5994 5997 5993 1
5995 5993 6003 1
5996 5993 6004 1
5997 5994 5996 1
5998 6011 5994 1
5999 5994 6005 1
6000 5994 6006 1
6001 5995 5996 1
6002 5999 5995 1
6003 6000 5995 2
6004 5998 5997 1
6005 5997 6008 1
6006 6001 5998 1
6007 6002 5998 2
6008 6007 6010 1
6009 6011 6007 1
6010 6007 6017 1
6011 6007 6018 1
6012 6008 6010 1
6013 6008 6019 1
6014 6008 6020 1
6015 6009 6010 1
6016 6013 6009 1
6017 6014 6009 2
6018 6012 6011 1
6019 6015 6012 1
6020 6016 6012 2
6021 6021 6024 1
6022 6025 6021 1
6023 6021 6031 1
6024 6021 6032 1
6025 6022 6024 1
6026 6039 6022 1
6027 6022 6033 1
6028 6022 6034 1
6029 6023 6024 1
6030 6027 6023 1
6031 6028 6023 2
6032 6026 6025 1
6033 6025 6036 1
6034 6029 6026 1
6035 6030 6026 2
6036 6035 6038 1
6037 6039 6035 1
6038 6035 6045 1
6039 6035 6046 1
6040 6036 6038 1
6041 6036 6047 1
6042 6036 6048 1
6043 6037 6038 1
6044 6041 6037 1
6045 6042 6037 2
6046 6040 6039 1
6047 6043 6040 1
6048 6044 6040 2
6049 6049 6052 1
6050 6053 6049 1
6051 6049 6059 1
6052 6049 6060 1
6053 6050 6052 1
6054 6067 6050 1
6055 6050 6061 1
6056 6050 6062 1
6057 6051 6052 1
6058 6055 6051 1
6059 6056 6051 2
6060 6054 6053 1
6061 6053 6064 1
6062 6057 6054 1
6063 6058 6054 2
6064 6063 6066 1
6065 6067 6063 1
6066 6063 6073 1
6067 6063 6074 1
6068 6064 6066 1
6069 6064 6075 1
6070 6064 6076 1
6071 6065 6066 1
6072 6069 6065 1
6073 6070 6065 2
6074 6068 6067 1
6075 6071 6068 1
6076 6072 6068 2
6077 6077 6080 1
6078 6081 6077 1
6079 6077 6087 1
6080 6077 6088 1
6081 6078 6080 1
6082 6095 6078 1
6083 6078 6089 1
6084 6078 6090 1
6085 6079 6080 1
6086 6083 6079 1
6087 6084 6079 2
6088 6082 6081 1
6089 6081 6092 1
6090 6085 6082 1
6091 6086 6082 2
6092 6091 6094 1
6093 6095 6091 1
6094 6091 6101 1
6095 6091 6102 1
6096 6092 6094 1
6097 6092 6103 1
6098 6092 6104 1
6099 6093 6094 1
6100 6097 6093 1
6101 6098 6093 2
6102 6096 6095 1
6103 6099 6096 1
6104 6100 6096 2
6105 6105 6108 1
6106 6109 6105 1
6107 6105 6115 1
6108 6105 6116 1
6109 6106 6108 1
6110 6123 6106 1
6111 6106 6117 1
6112 6106 6118 1
6113 6107 6108 1
6114 6111 6107 1
6115 6112 6107 2
6116 6110 6109 1
6117 6109 6120 1
6118 6113 6110 1
6119 6114 6110 2
6120 6119 6122 1
6121 6123 6119 1
6122 6119 6129 1
6123 6119 6130 1
6124 6120 6122 1
6125 6120 6131 1
6126 6120 6132 1
6127 6121 6122 1
6128 6125 6121 1
6129 6126 6121 2
6130 6124 6123 1
6131 6127 6124 1
6132 6128 6124 2
6133 6133 6136 1
6134 6137 6133 1
6135 6133 6143 1
6136 6133 6144 1
6137 6134 6136 1
6138 6151 6134 1
6139 6134 6145 1
6140 6134 6146 1
6141 6135 6136 1
6142 6139 6135 1
6143 6140 6135 2
6144 6138 6137 1
6145 6137 6148 1
6146 6141 6138 1
6147 6142 6138 2
6148 6147 6150 1
6149 6151 6147 1
6150 6147 6157 1
6151 6147 6158 1
6152 6148 6150 1
6153 6148 6159 1
6154 6148 6160 1
6155 6149 6150 1
6156 6153 6149 1
6157 6154 6149 2
6158 6152 6151 1
6159 6155 6152 1
6160 6156 6152 2
6161 6161 6164 1
6162 6165 6161 1
6163 6161 6171 1
6164 6161 6172 1
6165 6162 6164 1
6166 6179 6162 1
6167 6162 6173 1
6168 6162 6174 1
6169 6163 6164 1
6170 6167 6163 1
6171 6168 6163 2
6172 6166 6165 1
6173 6165 6176 1
6174 6169 6166 1
6175 6170 6166 2
6176 6175 6178 1
6177 6179 6175 1
6178 6175 6185 1
6179 6175 6186 1
6180 6176 6178 1
6181 6176 6187 1
6182 6176 6188 1
6183 6177 6178 1
6184 6181 6177 1
6185 6182 6177 2
6186 6180 6179 1
6187 6183 6180 1
6188 6184 6180 2
6189 6189 6192 1
6190 6193 6189 1
6191 6189 6199 1
6192 6189 6200 1
6193 6190 6192 1
6194 6207 6190 1
6195 6190 6201 1
6196 6190 6202 1
6197 6191 6192 1
6198 6195 6191 1
6199 6196 6191 2
6200 6194 6193 1
6201 6193 6204 1
6202 6197 6194 1
6203 6198 6194 2
6204 6203 6206 1
6205 6207 6203 1
6206 6203 6213 1
6207 6203 6214 1
6208 6204 6206 1
6209 6204 6215 1
6210 6204 6216 1
6211 6205 6206 1
6212 6209 6205 1
6213 6210 6205 2
6214 6208 6207 1
6215 6211 6208 1
6216 6212 6208 2
6217 6217 6220 1
6218 6221 6217 1
6219 6217 6227 1
6220 6217 6228 1
6221 6218 6220 1
6222 6235 6218 1
6223 6218 6229 1
6224 6218 6230 1
6225 6219 6220 1
6226 6223 6219 1
6227 6224 6219 2
6228 6222 6221 1
6229 6221 6232 1
6230 6225 6222 1
6231 6226 6222 2
6232 6231 6234 1
6233 6235 6231 1
6234 6231 6241 1
6235 6231 6242 1
6236 6232 6234 1
6237 6232 6243 1
6238 6232 6244 1
6239 6233 6234 1
6240 6237 6233 1
6241 6238 6233 2
6242 6236 6235 1
6243 6239 6236 1
6244 6240 6236 2
6245 6245 6248 1
6246 6249 6245 1
6247 6245 6255 1
6248 6245 6256 1
6249 6246 6248 1
6250 6263 6246 1
6251 6246 6257 1
6252 6246 6258 1
6253 6247 6248 1
6254 6251 6247 1
6255 6252 6247 2
6256 6250 6249 1
6257 6249 6260 1
6258 6253 6250 1
6259 6254 6250 2
6260 6259 6262 1
6261 6263 6259 1
6262 6259 6269 1
6263 6259 6270 1
6264 6260 6262 1
6265 6260 6271 1
6266 6260 6272 1
6267 6261 6262 1
6268 6265 6261 1
6269 6266 6261 2
6270 6264 6263 1
6271 6267 6264 1
6272 6268 6264 2
6273 6273 6276 1
6274 6277 6273 1
6275 6273 6283 1
6276 6273 6284 1
6277 6274 6276 1
6278 6291 6274 1
6279 6274 6285 1
6280 6274 6286 1
6281 6275 6276 1
6282 6279 6275 1
6283 6280 6275 2
6284 6278 6277 1
6285 6277 6288 1
6286 6281 6278 1
6287 6282 6278 2
6288 6287 6290 1
6289 6291 6287 1
6290 6287 6297 1
6291 6287 6298 1
6292 6288 6290 1
6293 6288 6299 1
6294 6288 6300 1
6295 6289 6290 1
6296 6293 6289 1
6297 6294 6289 2
6298 6292 6291 1
6299 6295 6292 1
6300 6296 6292 2
6301 6301 6304 1
6302 6305 6301 1
6303 6301 6311 1
6304 6301 6312 1
6305 6302 6304 1
6306 6319 6302 1
6307 6302 6313 1
6308 6302 6314 1
6309 6303 6304 1
6310 6307 6303 1
6311 6308 6303 2
6312 6306 6305 1
6313 6305 6316 1
6314 6309 6306 1
6315 6310 6306 2
6316 6315 6318 1
6317 6319 6315 1
6318 6315 6325 1
6319 6315 6326 1
6320 6316 6318 1
6321 6316 6327 1
6322 6316 6328 1
6323 6317 6318 1
6324 6321 6317 1
6325 6322 6317 2
6326 6320 6319 1
6327 6323 6320 1
6328 6324 6320 2
6329 6329 6332 1
6330 6333 6329 1
6331 6329 6339 1
6332 6329 6340 1
6333 6330 6332 1
6334 6347 6330 1
6335 6330 6341 1
6336 6330 6342 1
6337 6331 6332 1
6338 6335 6331 1
6339 6336 6331 2
6340 6334 6333 1
6341 6333 6344 1
6342 6337 6334 1
6343 6338 6334 2
6344 6343 6346 1
6345 6347 6343 1
6346 6343 6353 1
6347 6343 6354 1
6348 6344 6346 1
6349 6344 6355 1
6350 6344 6356 1
6351 6345 6346 1
6352 6349 6345 1
6353 6350 6345 2
6354 6348 6347 1
6355 6351 6348 1
6356 6352 6348 2
6357 6357 6360 1
6358 6361 6357 1
6359 6357 6367 1
6360 6357 6368 1
6361 6358 6360 1
6362 6375 6358 1
6363 6358 6369 1
6364 6358 6370 1
6365 6359 6360 1
6366 6363 6359 1
6367 6364 6359 2
6368 6362 6361 1
6369 6361 6372 1
6370 6365 6362 1
6371 6366 6362 2
6372 6371 6374 1
6373 6375 6371 1
6374 6371 6381 1
6375 6371 6382 1
6376 6372 6374 1
6377 6372 6383 1
6378 6372 6384 1
6379 6373 6374 1
6380 6377 6373 1
6381 6378 6373 2
6382 6376 6375 1
6383 6379 6376 1
6384 6380 6376 2
6385 6385 6388 1
6386 6389 6385 1
6387 6385 6395 1
6388 6385 6396 1
6389 6386 6388 1
6390 6403 6386 1
6391 6386 6397 1
6392 6386 6398 1
6393 6387 6388 1
6394 6391 6387 1
6395 6392 6387 2
6396 6390 6389 1
6397 6389 6400 1
6398 6393 6390 1
6399 6394 6390 2
6400 6399 6402 1
6401 6403 6399 1
6402 6399 6409 1
6403 6399 6410 1
6404 6400 6402 1
6405 6400 6411 1
6406 6400 6412 1
6407 6401 6402 1
6408 6405 6401 1
6409 6406 6401 2
6410 6404 6403 1
6411 6407 6404 1
6412 6408 6404 2
6413 6413 6416 1
6414 6417 6413 1
6415 6413 6423 1
6416 6413 6424 1
6417 6414 6416 1
6418 6431 6414 1
6419 6414 6425 1
6420 6414 6426 1
6421 6415 6416 1
6422 6419 6415 1
6423 6420 6415 2
6424 6418 6417 1
6425 6417 6428 1
6426 6421 6418 1
6427 6422 6418 2
6428 6427 6430 1
6429 6431 6427 1
6430 6427 6437 1
6431 6427 6438 1
6432 6428 6430 1
6433 6428 6439 1
6434 6428 6440 1
6435 6429 6430 1
6436 6433 6429 1
6437 6434 6429 2
6438 6432 6431 1
6439 6435 6432 1
6440 6436 6432 2
6441 6441 6444 1
6442 6445 6441 1
6443 6441 6451 1
6444 6441 6452 1
6445 6442 6444 1
6446 6459 6442 1
6447 6442 6453 1
6448 6442 6454 1
6449 6443 6444 1
6450 6447 6443 1
6451 6448 6443 2
6452 6446 6445 1
6453 6445 6456 1
6454 6449 6446 1
6455 6450 6446 2
6456 6455 6458 1
6457 6459 6455 1
6458 6455 6465 1
6459 6455 6466 1
6460 6456 6458 1
6461 6456 6467 1
6462 6456 6468 1
6463 6457 6458 1
6464 6461 6457 1
6465 6462 6457 2
6466 6460 6459 1
6467 6463 6460 1
6468 6464 6460 2
6469 6469 6472 1
6470 6473 6469 1
6471 6469 6479 1
6472 6469 6480 1
6473 6470 6472 1
6474 6487 6470 1
6475 6470 6481 1
6476 6470 6482 1
6477 6471 6472 1
6478 6475 6471 1
6479 6476 6471 2
6480 6474 6473 1
6481 6473 6484 1
6482 6477 6474 1
6483 6478 6474 2
6484 6483 6486 1
6485 6487 6483 1
6486 6483 6493 1
6487 6483 6494 1
6488 6484 6486 1
6489 6484 6495 1
6490 6484 6496 1
6491 6485 6486 1
6492 6489 6485 1
6493 6490 6485 2
6494 6488 6487 1
6495 6491 6488 1
6496 6492 6488 2
6497 6497 6500 1
6498 6501 6497 1
6499 6497 6507 1
6500 6497 6508 1
6501 6498 6500 1
6502 6515 6498 1
6503 6498 6509 1
6504 6498 6510 1
6505 6499 6500 1
6506 6503 6499 1
6507 6504 6499 2
6508 6502 6501 1
6509 6501 6512 1
6510 6505 6502 1
6511 6506 6502 2
6512 6511 6514 1
6513 6515 6511 1
6514 6511 6521 1
6515 6511 6522 1
6516 6512 6514 1
6517 6512 6523 1
6518 6512 6524 1
6519 6513 6514 1
6520 6517 6513 1
6521 6518 6513 2
6522 6516 6515 1
6523 6519 6516 1
6524 6520 6516 2
6525 6525 6528 1
6526 6529 6525 1
6527 6525 6535 1
6528 6525 6536 1
6529 6526 6528 1
6530 6543 6526 1
6531 6526 6537 1
6532 6526 6538 1
6533 6527 6528 1
6534 6531 6527 1
6535 6532 6527 2
6536 6530 6529 1
6537 6529 6540 1
6538 6533 6530 1
6539 6534 6530 2
6540 6539 6542 1
6541 6543 6539 1
6542 6539 6549 1
6543 6539 6550 1
6544 6540 6542 1
6545 6540 6551 1
6546 6540 6552 1
6547 6541 6542 1
6548 6545 6541 1
6549 6546 6541 2
6550 6544 6543 1
6551 6547 6544 1
6552 6548 6544 2
6553 6553 6556 1
6554 6557 6553 1
6555 6553 6563 1
6556 6553 6564 1
6557 6554 6556 1
6558 6571 6554 1
6559 6554 6565 1
6560 6554 6566 1
6561 6555 6556 1
6562 6559 6555 1
6563 6560 6555 2
6564 6558 6557 1
6565 6557 6568 1
6566 6561 6558 1
6567 6562 6558 2
6568 6567 6570 1
6569 6571 6567 1
6570 6567 6577 1
6571 6567 6578 1
6572 6568 6570 1
6573 6568 6579 1
6574 6568 6580 1
6575 6569 6570 1
6576 6573 6569 1
6577 6574 6569 2
6578 6572 6571 1
6579 6575 6572 1
6580 6576 6572 2
6581 6581 6584 1
6582 6585 6581 1
6583 6581 6591 1
6584 6581 6592 1
6585 6582 6584 1
6586 6599 6582 1
6587 6582 6593 1
6588 6582 6594 1
6589 6583 6584 1
6590 6587 6583 1
6591 6588 6583 2
6592 6586 6585 1
6593 6585 6596 1
6594 6589 6586 1
6595 6590 6586 2
6596 6595 6598 1
6597 6599 6595 1
6598 6595 6605 1
6599 6595 6606 1
6600 6596 6598 1
6601 6596 6607 1
6602 6596 6608 1
6603 6597 6598 1
6604 6601 6597 1
6605 6602 6597 2
6606 6600 6599 1
6607 6603 6600 1
6608 6604 6600 2
6609 6609 6612 1
6610 6613 6609 1
6611 6609 6619 1
6612 6609 6620 1
6613 6610 6612 1
6614 6627 6610 1
6615 6610 6621 1
6616 6610 6622 1
6617 6611 6612 1
6618 6615 6611 1
6619 6616 6611 2
6620 6614 6613 1
6621 6613 6624 1
6622 6617 6614 1
6623 6618 6614 2
6624 6623 6626 1
6625 6627 6623 1
6626 6623 6633 1
6627 6623 6634 1
6628 6624 6626 1
6629 6624 6635 1
6630 6624 6636 1
6631 6625 6626 1
6632 6629 6625 1
6633 6630 6625 2
6634 6628 6627 1
6635 6631 6628 1
6636 6632 6628 2
6637 6637 6640 1
6638 6641 6637 1
6639 6637 6647 1
6640 6637 6648 1
6641 6638 6640 1
6642 6655 6638 1
6643 6638 6649 1
6644 6638 6650 1
6645 6639 6640 1
6646 6643 6639 1
6647 6644 6639 2
6648 6642 6641 1
6649 6641 6652 1
6650 6645 6642 1
6651 6646 6642 2
6652 6651 6654 1
6653 6655 6651 1
6654 6651 6661 1
6655 6651 6662 1
6656 6652 6654 1
6657 6652 6663 1
6658 6652 6664 1
6659 6653 6654 1
6660 6657 6653 1
6661 6658 6653 2
6662 6656 6655 1
6663 6659 6656 1
6664 6660 6656 2
6665 6665 6668 1
6666 6669 6665 1
6667 6665 6675 1
6668 6665 6676 1
6669 6666 6668 1
6670 6683 6666 1
6671 6666 6677 1
6672 6666 6678 1
6673 6667 6668 1
6674 6671 6667 1
6675 6672 6667 2
6676 6670 6669 1
6677 6669 6680 1
6678 6673 6670 1
6679 6674 6670 2
6680 6679 6682 1
6681 6683 6679 1
6682 6679 6689 1
6683 6679 6690 1
6684 6680 6682 1
6685 6680 6691 1
6686 6680 6692 1
6687 6681 6682 1
6688 6685 6681 1
6689 6686 6681 2
6690 6684 6683 1
6691 6687 6684 1
6692 6688 6684 2
6693 6693 6696 1
6694 6697 6693 1
6695 6693 6703 1
6696 6693 6704 1
6697 6694 6696 1
6698 6711 6694 1
6699 6694 6705 1
6700 6694 6706 1
6701 6695 6696 1
6702 6699 6695 1
6703 6700 6695 2
6704 6698 6697 1
6705 6697 6708 1
6706 6701 6698 1
6707 6702 6698 2
6708 6707 6710 1
6709 6711 6707 1
6710 6707 6717 1
6711 6707 6718 1
6712 6708 6710 1
6713 6708 6719 1
6714 6708 6720 1
6715 6709 6710 1
6716 6713 6709 1
6717 6714 6709 2
6718 6712 6711 1
6719 6715 6712 1
6720 6716 6712 2
6721 6721 6724 1
6722 6725 6721 1
6723 6721 6731 1
6724 6721 6732 1
6725 6722 6724 1
6726 6739 6722 1
6727 6722 6733 1
6728 6722 6734 1
6729 6723 6724 1
6730 6727 6723 1
6731 6728 6723 2
6732 6726 6725 1
6733 6725 6736 1
6734 6729 6726 1
6735 6730 6726 2
6736 6735 6738 1
6737 6739 6735 1
6738 6735 6745 1
6739 6735 6746 1
6740 6736 6738 1
6741 6736 6747 1
6742 6736 6748 1
6743 6737 6738 1
6744 6741 6737 1
6745 6742 6737 2
6746 6740 6739 1
6747 6743 6740 1
6748 6744 6740 2
6749 6749 6752 1
6750 6753 6749 1
6751 6749 6759 1
6752 6749 6760 1
6753 6750 6752 1
6754 6767 6750 1
6755 6750 6761 1
6756 6750 6762 1
6757 6751 6752 1
6758 6755 6751 1
6759 6756 6751 2
6760 6754 6753 1
6761 6753 6764 1
6762 6757 6754 1
6763 6758 6754 2
6764 6763 6766 1
6765 6767 6763 1
6766 6763 6773 1
6767 6763 6774 1
6768 6764 6766 1
6769 6764 6775 1
6770 6764 6776 1
6771 6765 6766 1
6772 6769 6765 1
6773 6770 6765 2
6774 6768 6767 1
6775 6771 6768 1
6776 6772 6768 2
6777 6777 6780 1
6778 6781 6777 1
6779 6777 6787 1
6780 6777 6788 1
6781 6778 6780 1
6782 6795 6778 1
6783 6778 6789 1
6784 6778 6790 1
6785 6779 6780 1
6786 6783 6779 1
6787 6784 6779 2
6788 6782 6781 1
6789 6781 6792 1
6790 6785 6782 1
6791 6786 6782 2
6792 6791 6794 1
6793 6795 6791 1
6794 6791 6801 1
6795 6791 6802 1
6796 6792 6794 1
6797 6792 6803 1
6798 6792 6804 1
6799 6793 6794 1
6800 6797 6793 1
6801 6798 6793 2
6802 6796 6795 1
6803 6799 6796 1
6804 6800 6796 2
6805 6805 6808 1
6806 6809 6805 1
6807 6805 6815 1
6808 6805 6816 1
6809 6806 6808 1
6810 6823 6806 1
6811 6806 6817 1
6812 6806 6818 1
6813 6807 6808 1
6814 6811 6807 1
6815 6812 6807 2
6816 6810 6809 1
6817 6809 6820 1
6818 6813 6810 1
6819 6814 6810 2
6820 6819 6822 1
6821 6823 6819 1
6822 6819 6829 1
6823 6819 6830 1
6824 6820 6822 1
6825 6820 6831 1
6826 6820 6832 1
6827 6821 6822 1
6828 6825 6821 1
6829 6826 6821 2
6830 6824 6823 1
6831 6827 6824 1
6832 6828 6824 2
6833 6833 6836 1
6834 6837 6833 1
6835 6833 6843 1
6836 6833 6844 1
6837 6834 6836 1
6838 6851 6834 1
6839 6834 6845 1
6840 6834 6846 1
6841 6835 6836 1
6842 6839 6835 1
6843 6840 6835 2
6844 6838 6837 1
6845 6837 6848 1
6846 6841 6838 1
6847 6842 6838 2
6848 6847 6850 1
6849 6851 6847 1
6850 6847 6857 1
6851 6847 6858 1
6852 6848 6850 1
6853 6848 6859 1
6854 6848 6860 1
6855 6849 6850 1
6856 6853 6849 1
6857 6854 6849 2
6858 6852 6851 1
6859 6855 6852 1
6860 6856 6852 2
6861 6861 6864 1
6862 6865 6861 1
6863 6861 6871 1
6864 6861 6872 1
6865 6862 6864 1
6866 6879 6862 1
6867 6862 6873 1
6868 6862 6874 1
6869 6863 6864 1
6870 6867 6863 1
6871 6868 6863 2
6872 6866 6865 1
6873 6865 6876 1
6874 6869 6866 1
6875 6870 6866 2
6876 6875 6878 1
6877 6879 6875 1
6878 6875 6885 1
6879 6875 6886 1
6880 6876 6878 1
6881 6876 6887 1
6882 6876 6888 1
6883 6877 6878 1
6884 6881 6877 1
6885 6882 6877 2
6886 6880 6879 1
6887 6883 6880 1
6888 6884 6880 2
6889 6889 6892 1
6890 6893 6889 1
6891 6889 6899 1
6892 6889 6900 1
6893 6890 6892 1
6894 6907 6890 1
6895 6890 6901 1
6896 6890 6902 1
6897 6891 6892 1
6898 6895 6891 1
6899 6896 6891 2
6900 6894 6893 1
6901 6893 6904 1
6902 6897 6894 1
6903 6898 6894 2
6904 6903 6906 1
6905 6907 6903 1
6906 6903 6913 1
6907 6903 6914 1
6908 6904 6906 1
6909 6904 6915 1
6910 6904 6916 1
6911 6905 6906 1
6912 6909 6905 1
6913 6910 6905 2
6914 6908 6907 1
6915 6911 6908 1
6916 6912 6908 2
6917 6917 6920 1
6918 6921 6917 1
6919 6917 6927 1
6920 6917 6928 1
6921 6918 6920 1
6922 6935 6918 1
6923 6918 6929 1
6924 6918 6930 1
6925 6919 6920 1
6926 6923 6919 1
6927 6924 6919 2
6928 6922 6921 1
6929 6921 6932 1
6930 6925 6922 1
6931 6926 6922 2
6932 6931 6934 1
6933 6935 6931 1
6934 6931 6941 1
6935 6931 6942 1
6936 6932 6934 1
6937 6932 6943 1
6938 6932 6944 1
6939 6933 6934 1
6940 6937 6933 1
6941 6938 6933 2
6942 6936 6935 1
6943 6939 6936 1
6944 6940 6936 2
6945 6945 6948 1
6946 6949 6945 1
6947 6945 6955 1
6948 6945 6956 1
6949 6946 6948 1
6950 6963 6946 1
6951 6946 6957 1
6952 6946 6958 1
6953 6947 6948 1
6954 6951 6947 1
6955 6952 6947 2
6956 6950 6949 1
6957 6949 6960 1
6958 6953 6950 1
6959 6954 6950 2
6960 6959 6962 1
6961 6963 6959 1
6962 6959 6969 1
6963 6959 6970 1
6964 6960 6962 1
6965 6960 6971 1
6966 6960 6972 1
6967 6961 6962 1
6968 6965 6961 1
6969 6966 6961 2
6970 6964 6963 1
6971 6967 6964 1
6972 6968 6964 2
6973 6973 6976 1
6974 6977 6973 1
6975 6973 6983 1
6976 6973 6984 1
6977 6974 6976 1
6978 6991 6974 1
6979 6974 6985 1
6980 6974 6986 1
6981 6975 6976 1
6982 6979 6975 1
6983 6980 6975 2
6984 6978 6977 1
6985 6977 6988 1
6986 6981 6978 1
6987 6982 6978 2
6988 6987 6990 1
6989 6991 6987 1
6990 6987 6997 1
6991 6987 6998 1
6992 6988 6990 1
6993 6988 6999 1
6994 6988 7000 1
6995 6989 6990 1
6996 6993 6989 1
6997 6994 6989 2
6998 6992 6991 1
6999 6995 6992 1
7000 6996 6992 2
7001 7001 7004 1
7002 7005 7001 1
7003 7001 7011 1
7004 7001 7012 1
7005 7002 7004 1
7006 7019 7002 1
7007 7002 7013 1
7008 7002 7014 1
7009 7003 7004 1
7010 7007 7003 1
7011 7008 7003 2
7012 7006 7005 1
7013 7005 7016 1
7014 7009 7006 1
7015 7010 7006 2
7016 7015 7018 1
7017 7019 7015 1
7018 7015 7025 1
7019 7015 7026 1
7020 7016 7018 1
7021 7016 7027 1
7022 7016 7028 1
7023 7017 7018 1
7024 7021 7017 1
7025 7022 7017 2
7026 7020 7019 1
7027 7023 7020 1
7028 7024 7020 2
7029 7029 7032 1
7030 7033 7029 1
7031 7029 7039 1
7032 7029 7040 1
7033 7030 7032 1
7034 7047 7030 1
7035 7030 7041 1
7036 7030 7042 1
7037 7031 7032 1
7038 7035 7031 1
7039 7036 7031 2
7040 7034 7033 1
7041 7033 7044 1
7042 7037 7034 1
7043 7038 7034 2
7044 7043 7046 1
7045 7047 7043 1
7046 7043 7053 1
7047 7043 7054 1
7048 7044 7046 1
7049 7044 7055 1
7050 7044 7056 1
7051 7045 7046 1
7052 7049 7045 1
7053 7050 7045 2
7054 7048 7047 1
7055 7051 7048 1
7056 7052 7048 2
7057 7057 7060 1
7058 7061 7057 1
7059 7057 7067 1
7060 7057 7068 1
7061 7058 7060 1
7062 7075 7058 1
7063 7058 7069 1
7064 7058 7070 1
7065 7059 7060 1
7066 7063 7059 1
7067 7064 7059 2
7068 7062 7061 1
7069 7061 7072 1
7070 7065 7062 1
7071 7066 7062 2
7072 7071 7074 1
7073 7075 7071 1
7074 7071 7081 1
7075 7071 7082 1
7076 7072 7074 1
7077 7072 7083 1
7078 7072 7084 1
7079 7073 7074 1
7080 7077 7073 1
7081 7078 7073 2
7082 7076 7075 1
7083 7079 7076 1
7084 7080 7076 2
7085 7085 7088 1
7086 7089 7085 1
7087 7085 7095 1
7088 7085 7096 1
7089 7086 7088 1
7090 7103 7086 1
7091 7086 7097 1
7092 7086 7098 1
7093 7087 7088 1
7094 7091 7087 1
7095 7092 7087 2
7096 7090 7089 1
7097 7089 7100 1
7098 7093 7090 1
7099 7094 7090 2
7100 7099 7102 1
7101 7103 7099 1
7102 7099 7109 1
7103 7099 7110 1
7104 7100 7102 1
7105 7100 7111 1
7106 7100 7112 1
7107 7101 7102 1
7108 7105 7101 1
7109 7106 7101 2
7110 7104 7103 1
7111 7107 7104 1
7112 7108 7104 2
7113 7113 7116 1
7114 7117 7113 1
7115 7113 7123 1
7116 7113 7124 1
7117 7114 7116 1
7118 7131 7114 1
7119 7114 7125 1
7120 7114 7126 1
7121 7115 7116 1
7122 7119 7115 1
7123 7120 7115 2
7124 7118 7117 1
7125 7117 7128 1
7126 7121 7118 1
7127 7122 7118 2
7128 7127 7130 1
7129 7131 7127 1
7130 7127 7137 1
7131 7127 7138 1
7132 7128 7130 1
7133 7128 7139 1
7134 7128 7140 1
7135 7129 7130 1
7136 7133 7129 1
7137 7134 7129 2
7138 7132 7131 1
7139 7135 7132 1
7140 7136 7132 2
7141 7141 7144 1
7142 7145 7141 1
7143 7141 7151 1
7144 7141 7152 1
7145 7142 7144 1
7146 7159 7142 1
7147 7142 7153 1
7148 7142 7154 1
7149 7143 7144 1
7150 7147 7143 1
7151 7148 7143 2
7152 7146 7145 1
7153 7145 7156 1
7154 7149 7146 1
7155 7150 7146 2
7156 7155 7158 1
7157 7159 7155 1
7158 7155 7165 1
7159 7155 7166 1
7160 7156 7158 1
7161 7156 7167 1
7162 7156 7168 1
7163 7157 7158 1
7164 7161 7157 1
7165 7162 7157 2
7166 7160 7159 1
7167 7163 7160 1
7168 7164 7160 2
7169 7169 7172 1
7170 7173 7169 1
7171 7169 7179 1
7172 7169 7180 1
7173 7170 7172 1
7174 7187 7170 1
7175 7170 7181 1
7176 7170 7182 1
7177 7171 7172 1
7178 7175 7171 1
7179 7176 7171 2
7180 7174 7173 1
7181 7173 7184 1
7182 7177 7174 1
7183 7178 7174 2
7184 7183 7186 1
7185 7187 7183 1
7186 7183 7193 1
7187 7183 7194 1
7188 7184 7186 1
7189 7184 7195 1
7190 7184 7196 1
7191 7185 7186 1
7192 7189 7185 1
7193 7190 7185 2
7194 7188 7187 1
7195 7191 7188 1
7196 7192 7188 2
7197 7197 7200 1
7198 7201 7197 1
7199 7197 7207 1
7200 7197 7208 1
7201 7198 7200 1
7202 7215 7198 1
7203 7198 7209 1
7204 7198 7210 1
7205 7199 7200 1
7206 7203 7199 1
7207 7204 7199 2
7208 7202 7201 1
7209 7201 7212 1
7210 7205 7202 1
7211 7206 7202 2
7212 7211 7214 1
7213 7215 7211 1
7214 7211 7221 1
7215 7211 7222 1
7216 7212 7214 1
7217 7212 7223 1
7218 7212 7224 1
7219 7213 7214 1
7220 7217 7213 1
7221 7218 7213 2
7222 7216 7215 1
7223 7219 7216 1
7224 7220 7216 2
7225 7225 7228 1
7226 7229 7225 1
7227 7225 7235 1
7228 7225 7236 1
7229 7226 7228 1
7230 7243 7226 1
7231 7226 7237 1
7232 7226 7238 1
7233 7227 7228 1
7234 7231 7227 1
7235 7232 7227 2
7236 7230 7229 1
7237 7229 7240 1
7238 7233 7230 1
7239 7234 7230 2
7240 7239 7242 1
7241 7243 7239 1
7242 7239 7249 1
7243 7239 7250 1
7244 7240 7242 1
7245 7240 7251 1
7246 7240 7252 1
7247 7241 7242 1
7248 7245 7241 1
7249 7246 7241 2
7250 7244 7243 1
7251 7247 7244 1
7252 7248 7244 2
7253 7253 7256 1
7254 7257 7253 1
7255 7253 7263 1
7256 7253 7264 1
7257 7254 7256 1
7258 7271 7254 1
7259 7254 7265 1
7260 7254 7266 1
7261 7255 7256 1
7262 7259 7255 1
7263 7260 7255 2
7264 7258 7257 1
7265 7257 7268 1
7266 7261 7258 1
7267 7262 7258 2
7268 7267 7270 1
7269 7271 7267 1
7270 7267 7277 1
7271 7267 7278 1
7272 7268 7270 1
7273 7268 7279 1
7274 7268 7280 1
7275 7269 7270 1
7276 7273 7269 1
7277 7274 7269 2
7278 7272 7271 1
7279 7275 7272 1
7280 7276 7272 2
7281 7281 7284 1
7282 7285 7281 1
7283 7281 7291 1
7284 7281 7292 1
7285 7282 7284 1
7286 7299 7282 1
7287 7282 7293 1
7288 7282 7294 1
7289 7283 7284 1
7290 7287 7283 1
7291 7288 7283 2
7292 7286 7285 1
7293 7285 7296 1
7294 7289 7286 1
7295 7290 7286 2
7296 7295 7298 1
7297 7299 7295 1
7298 7295 7305 1
7299 7295 7306 1
7300 7296 7298 1
7301 7296 7307 1
7302 7296 7308 1
7303 7297 7298 1
7304 7301 7297 1
7305 7302 7297 2
7306 7300 7299 1
7307 7303 7300 1
7308 7304 7300 2
7309 7309 7312 1
7310 7313 7309 1
7311 7309 7319 1
7312 7309 7320 1
7313 7310 7312 1
7314 7327 7310 1
7315 7310 7321 1
7316 7310 7322 1
7317 7311 7312 1
7318 7315 7311 1
7319 7316 7311 2
7320 7314 7313 1
7321 7313 7324 1
7322 7317 7314 1
7323 7318 7314 2
7324 7323 7326 1
7325 7327 7323 1
7326 7323 7333 1
7327 7323 7334 1
7328 7324 7326 1
7329 7324 7335 1
7330 7324 7336 1
7331 7325 7326 1
7332 7329 7325 1
7333 7330 7325 2
7334 7328 7327 1
7335 7331 7328 1
7336 7332 7328 2
7337 7337 7340 1
7338 7341 7337 1
7339 7337 7347 1
7340 7337 7348 1
7341 7338 7340 1
7342 7355 7338 1
7343 7338 7349 1
7344 7338 7350 1
7345 7339 7340 1
7346 7343 7339 1
7347 7344 7339 2
7348 7342 7341 1
7349 7341 7352 1
7350 7345 7342 1
7351 7346 7342 2
7352 7351 7354 1
7353 7355 7351 1
7354 7351 7361 1
7355 7351 7362 1
7356 7352 7354 1
7357 7352 7363 1
7358 7352 7364 1
7359 7353 7354 1
7360 7357 7353 1
7361 7358 7353 2
7362 7356 7355 1
7363 7359 7356 1
7364 7360 7356 2
7365 7365 7368 1
7366 7369 7365 1
7367 7365 7375 1
7368 7365 7376 1
7369 7366 7368 1
7370 7383 7366 1
7371 7366 7377 1
7372 7366 7378 1
7373 7367 7368 1
7374 7371 7367 1
7375 7372 7367 2
7376 7370 7369 1
7377 7369 7380 1
7378 7373 7370 1
7379 7374 7370 2
7380 7379 7382 1
7381 7383 7379 1
7382 7379 7389 1
7383 7379 7390 1
7384 7380 7382 1
7385 7380 7391 1
7386 7380 7392 1
7387 7381 7382 1
7388 7385 7381 1
7389 7386 7381 2
7390 7384 7383 1
7391 7387 7384 1
7392 7388 7384 2
7393 7393 7396 1
7394 7397 7393 1
7395 7393 7403 1
7396 7393 7404 1
7397 7394 7396 1
7398 7411 7394 1
7399 7394 7405 1
7400 7394 7406 1
7401 7395 7396 1
7402 7399 7395 1
7403 7400 7395 2
7404 7398 7397 1
7405 7397 7408 1
7406 7401 7398 1
7407 7402 7398 2
7408 7407 7410 1
7409 7411 7407 1
7410 7407 7417 1
7411 7407 7418 1
7412 7408 7410 1
7413 7408 7419 1
7414 7408 7420 1
7415 7409 7410 1
7416 7413 7409 1
7417 7414 7409 2
7418 7412 7411 1
7419 7415 7412 1
7420 7416 7412 2
7421 7421 7424 1
7422 7425 7421 1
7423 7421 7431 1
7424 7421 7432 1
7425 7422 7424 1
7426 7439 7422 1
7427 7422 7433 1
7428 7422 7434 1
7429 7423 7424 1
7430 7427 7423 1
7431 7428 7423 2
7432 7426 7425 1
7433 7425 7436 1
7434 7429 7426 1
7435 7430 7426 2
7436 7435 7438 1
7437 7439 7435 1
7438 7435 7445 1
7439 7435 7446 1
7440 7436 7438 1
7441 7436 7447 1
7442 7436 7448 1
7443 7437 7438 1
7444 7441 7437 1
7445 7442 7437 2
7446 7440 7439 1
7447 7443 7440 1
7448 7444 7440 2
7449 7449 7452 1
7450 7453 7449 1
7451 7449 7459 1
7452 7449 7460 1
7453 7450 7452 1
7454 7467 7450 1
7455 7450 7461 1
7456 7450 7462 1
7457 7451 7452 1
7458 7455 7451 1
7459 7456 7451 2
7460 7454 7453 1
7461 7453 7464 1
7462 7457 7454 1
7463 7458 7454 2
7464 7463 7466 1
7465 7467 7463 1
7466 7463 7473 1
7467 7463 7474 1
7468 7464 7466 1
7469 7464 7475 1
7470 7464 7476 1
7471 7465 7466 1
7472 7469 7465 1
7473 7470 7465 2
7474 7468 7467 1
7475 7471 7468 1
7476 7472 7468 2
7477 7477 7480 1
7478 7481 7477 1
7479 7477 7487 1
7480 7477 7488 1
7481 7478 7480 1
7482 7495 7478 1
7483 7478 7489 1
7484 7478 7490 1
7485 7479 7480 1
7486 7483 7479 1
7487 7484 7479 2
7488 7482 7481 1
7489 7481 7492 1
7490 7485 7482 1
7491 7486 7482 2
7492 7491 7494 1
7493 7495 7491 1
7494 7491 7501 1
7495 7491 7502 1
7496 7492 7494 1
7497 7492 7503 1
7498 7492 7504 1
7499 7493 7494 1
7500 7497 7493 1
7501 7498 7493 2
7502 7496 7495 1
7503 7499 7496 1
7504 7500 7496 2
7505 7505 7508 1
7506 7509 7505 1
7507 7505 7515 1
7508 7505 7516 1
7509 7506 7508 1
7510 7523 7506 1
7511 7506 7517 1
7512 7506 7518 1
7513 7507 7508 1
7514 7511 7507 1
7515 7512 7507 2
7516 7510 7509 1
7517 7509 7520 1
7518 7513 7510 1
7519 7514 7510 2
7520 7519 7522 1
7521 7523 7519 1
7522 7519 7529 1
7523 7519 7530 1
7524 7520 7522 1
7525 7520 7531 1
7526 7520 7532 1
7527 7521 7522 1
7528 7525 7521 1
7529 7526 7521 2
7530 7524 7523 1
7531 7527 7524 1
7532 7528 7524 2
7533 7533 7536 1
7534 7537 7533 1
7535 7533 7543 1
7536 7533 7544 1
7537 7534 7536 1
7538 7551 7534 1
7539 7534 7545 1
7540 7534 7546 1
7541 7535 7536 1
7542 7539 7535 1
7543 7540 7535 2
7544 7538 7537 1
7545 7537 7548 1
7546 7541 7538 1
7547 7542 7538 2
7548 7547 7550 1
7549 7551 7547 1
7550 7547 7557 1
7551 7547 7558 1
7552 7548 7550 1
7553 7548 7559 1
7554 7548 7560 1
7555 7549 7550 1
7556 7553 7549 1
7557 7554 7549 2
7558 7552 7551 1
7559 7555 7552 1
7560 7556 7552 2
7561 7561 7564 1
7562 7565 7561 1
7563 7561 7571 1
7564 7561 7572 1
7565 7562 7564 1
7566 7579 7562 1
7567 7562 7573 1
7568 7562 7574 1
7569 7563 7564 1
7570 7567 7563 1
7571 7568 7563 2
7572 7566 7565 1
7573 7565 7576 1
7574 7569 7566 1
7575 7570 7566 2
7576 7575 7578 1
7577 7579 7575 1
7578 7575 7585 1
7579 7575 7586 1
7580 7576 7578 1
7581 7576 7587 1
7582 7576 7588 1
7583 7577 7578 1
7584 7581 7577 1
7585 7582 7577 2
7586 7580 7579 1
7587 7583 7580 1
7588 7584 7580 2
7589 7589 7592 1
7590 7593 7589 1
7591 7589 7599 1
7592 7589 7600 1
7593 7590 7592 1
7594 7607 7590 1
7595 7590 7601 1
7596 7590 7602 1
7597 7591 7592 1
7598 7595 7591 1
7599 7596 7591 2
7600 7594 7593 1
7601 7593 7604 1
7602 7597 7594 1
7603 7598 7594 2
7604 7603 7606 1
7605 7607 7603 1
7606 7603 7613 1
7607 7603 7614 1
7608 7604 7606 1
7609 7604 7615 1
7610 7604 7616 1
7611 7605 7606 1
7612 7609 7605 1
7613 7610 7605 2
7614 7608 7607 1
7615 7611 7608 1
7616 7612 7608 2
7617 7617 7620 1
7618 7621 7617 1
7619 7617 7627 1
7620 7617 7628 1
7621 7618 7620 1
7622 7635 7618 1
7623 7618 7629 1
7624 7618 7630 1
7625 7619 7620 1
7626 7623 7619 1
7627 7624 7619 2
7628 7622 7621 1
7629 7621 7632 1
7630 7625 7622 1
7631 7626 7622 2
7632 7631 7634 1
7633 7635 7631 1
7634 7631 7641 1
7635 7631 7642 1
7636 7632 7634 1
7637 7632 7643 1
7638 7632 7644 1
7639 7633 7634 1
7640 7637 7633 1
7641 7638 7633 2
7642 7636 7635 1
7643 7639 7636 1
7644 7640 7636 2
7645 7645 7648 1
7646 7649 7645 1
7647 7645 7655 1
7648 7645 7656 1
7649 7646 7648 1
7650 7663 7646 1
7651 7646 7657 1
7652 7646 7658 1
7653 7647 7648 1
7654 7651 7647 1
7655 7652 7647 2
7656 7650 7649 1
7657 7649 7660 1
7658 7653 7650 1
7659 7654 7650 2
7660 7659 7662 1
7661 7663 7659 1
7662 7659 7669 1
7663 7659 7670 1
7664 7660 7662 1
7665 7660 7671 1
7666 7660 7672 1
7667 7661 7662 1
7668 7665 7661 1
7669 7666 7661 2
7670 7664 7663 1
7671 7667 7664 1
7672 7668 7664 2
7673 7673 7676 1
7674 7677 7673 1
7675 7673 7683 1
7676 7673 7684 1
7677 7674 7676 1
7678 7691 7674 1
7679 7674 7685 1
7680 7674 7686 1
7681 7675 7676 1
7682 7679 7675 1
7683 7680 7675 2
7684 7678 7677 1
7685 7677 7688 1
7686 7681 7678 1
7687 7682 7678 2
7688 7687 7690 1
7689 7691 7687 1
7690 7687 7697 1
7691 7687 7698 1
7692 7688 7690 1
7693 7688 7699 1
7694 7688 7700 1
7695 7689 7690 1
7696 7693 7689 1
7697 7694 7689 2
7698 7692 7691 1
7699 7695 7692 1
7700 7696 7692 2
7701 7701 7704 1
7702 7705 7701 1
7703 7701 7711 1
7704 7701 7712 1
7705 7702 7704 1
7706 7719 7702 1
7707 7702 7713 1
7708 7702 7714 1
7709 7703 7704 1
7710 7707 7703 1
7711 7708 7703 2
7712 7706 7705 1
7713 7705 7716 1
7714 7709 7706 1
7715 7710 7706 2
7716 7715 7718 1
7717 7719 7715 1
7718 7715 7725 1
7719 7715 7726 1
7720 7716 7718 1
7721 7716 7727 1
7722 7716 7728 1
7723 7717 7718 1
7724 7721 7717 1
7725 7722 7717 2
7726 7720 7719 1
7727 7723 7720 1
7728 7724 7720 2
7729 7729 7732 1
7730 7733 7729 1
7731 7729 7739 1
7732 7729 7740 1
7733 7730 7732 1
7734 7747 7730 1
7735 7730 7741 1
7736 7730 7742 1
7737 7731 7732 1
7738 7735 7731 1
7739 7736 7731 2
7740 7734 7733 1
7741 7733 7744 1
7742 7737 7734 1
7743 7738 7734 2
7744 7743 7746 1
7745 7747 7743 1
7746 7743 7753 1
7747 7743 7754 1
7748 7744 7746 1
7749 7744 7755 1
7750 7744 7756 1
7751 7745 7746 1
7752 7749 7745 1
7753 7750 7745 2
7754 7748 7747 1
7755 7751 7748 1
7756 7752 7748 2
7757 7757 7760 1
7758 7761 7757 1
7759 7757 7767 1
7760 7757 7768 1
7761 7758 7760 1
7762 7775 7758 1
7763 7758 7769 1
7764 7758 7770 1
7765 7759 7760 1
7766 7763 7759 1
7767 7764 7759 2
7768 7762 7761 1
7769 7761 7772 1
7770 7765 7762 1
7771 7766 7762 2
7772 7771 7774 1
7773 7775 7771 1
7774 7771 7781 1
7775 7771 7782 1
7776 7772 7774 1
7777 7772 7783 1
7778 7772 7784 1
7779 7773 7774 1
7780 7777 7773 1
7781 7778 7773 2
7782 7776 7775 1
7783 7779 7776 1
7784 7780 7776 2
7785 7785 7788 1
7786 7789 7785 1
7787 7785 7795 1
7788 7785 7796 1
7789 7786 7788 1
7790 7803 7786 1
7791 7786 7797 1
7792 7786 7798 1
7793 7787 7788 1
7794 7791 7787 1
7795 7792 7787 2
7796 7790 7789 1
7797 7789 7800 1
7798 7793 7790 1
7799 7794 7790 2
7800 7799 7802 1
7801 7803 7799 1
7802 7799 7809 1
7803 7799 7810 1
7804 7800 7802 1
7805 7800 7811 1
7806 7800 7812 1
7807 7801 7802 1
7808 7805 7801 1
7809 7806 7801 2
7810 7804 7803 1
7811 7807 7804 1
7812 7808 7804 2
7813 7813 7816 1
7814 7817 7813 1
7815 7813 7823 1
7816 7813 7824 1
7817 7814 7816 1
7818 7831 7814 1
7819 7814 7825 1
7820 7814 7826 1
7821 7815 7816 1
7822 7819 7815 1
7823 7820 7815 2
7824 7818 7817 1
7825 7817 7828 1
7826 7821 7818 1
7827 7822 7818 2
7828 7827 7830 1
7829 7831 7827 1
7830 7827 7837 1
7831 7827 7838 1
7832 7828 7830 1
7833 7828 7839 1
7834 7828 7840 1
7835 7829 7830 1
7836 7833 7829 1
7837 7834 7829 2
7838 7832 7831 1
7839 7835 7832 1
7840 7836 7832 2
7841 7841 7844 1
7842 7845 7841 1
7843 7841 7851 1
7844 7841 7852 1
7845 7842 7844 1
7846 7859 7842 1
7847 7842 7853 1
7848 7842 7854 1
7849 7843 7844 1
7850 7847 7843 1
7851 7848 7843 2
7852 7846 7845 1
7853 7845 7856 1
7854 7849 7846 1
7855 7850 7846 2
7856 7855 7858 1
7857 7859 7855 1
7858 7855 7865 1
7859 7855 7866 1
7860 7856 7858 1
7861 7856 7867 1
7862 7856 7868 1
7863 7857 7858 1
7864 7861 7857 1
7865 7862 7857 2
7866 7860 7859 1
7867 7863 7860 1
7868 7864 7860 2
7869 7869 7872 1
7870 7873 7869 1
7871 7869 7879 1
7872 7869 7880 1
7873 7870 7872 1
7874 7887 7870 1
7875 7870 7881 1
7876 7870 7882 1
7877 7871 7872 1
7878 7875 7871 1
7879 7876 7871 2
7880 7874 7873 1
7881 7873 7884 1
7882 7877 7874 1
7883 7878 7874 2
7884 7883 7886 1
7885 7887 7883 1
7886 7883 7893 1
7887 7883 7894 1
7888 7884 7886 1
7889 7884 7895 1
7890 7884 7896 1
7891 7885 7886 1
7892 7889 7885 1
7893 7890 7885 2
7894 7888 7887 1
7895 7891 7888 1
7896 7892 7888 2
7897 7897 7900 1
7898 7901 7897 1
7899 7897 7907 1
7900 7897 7908 1
7901 7898 7900 1
7902 7915 7898 1
7903 7898 7909 1
7904 7898 7910 1
7905 7899 7900 1
7906 7903 7899 1
7907 7904 7899 2
7908 7902 7901 1
7909 7901 7912 1
7910 7905 7902 1
7911 7906 7902 2
7912 7911 7914 1
7913 7915 7911 1
7914 7911 7921 1
7915 7911 7922 1
7916 7912 7914 1
7917 7912 7923 1
7918 7912 7924 1
7919 7913 7914 1
7920 7917 7913 1
7921 7918 7913 2
7922 7916 7915 1
7923 7919 7916 1
7924 7920 7916 2
7925 7925 7928 1
7926 7929 7925 1
7927 7925 7935 1
7928 7925 7936 1
7929 7926 7928 1
7930 7943 7926 1
7931 7926 7937 1
7932 7926 7938 1
7933 7927 7928 1
7934 7931 7927 1
7935 7932 7927 2
7936 7930 7929 1
7937 7929 7940 1
7938 7933 7930 1
7939 7934 7930 2
7940 7939 7942 1
7941 7943 7939 1
7942 7939 7949 1
7943 7939 7950 1
7944 7940 7942 1
7945 7940 7951 1
7946 7940 7952 1
7947 7941 7942 1
7948 7945 7941 1
7949 7946 7941 2
7950 7944 7943 1
7951 7947 7944 1
7952 7948 7944 2
7953 7953 7956 1
7954 7957 7953 1
7955 7953 7963 1
7956 7953 7964 1
7957 7954 7956 1
7958 7971 7954 1
7959 7954 7965 1
7960 7954 7966 1
7961 7955 7956 1
7962 7959 7955 1
7963 7960 7955 2
7964 7958 7957 1
7965 7957 7968 1
7966 7961 7958 1
7967 7962 7958 2
7968 7967 7970 1
7969 7971 7967 1
7970 7967 7977 1
7971 7967 7978 1
7972 7968 7970 1
7973 7968 7979 1
7974 7968 7980 1
7975 7969 7970 1
7976 7973 7969 1
7977 7974 7969 2
7978 7972 7971 1
7979 7975 7972 1
7980 7976 7972 2
7981 7981 7984 1
7982 7985 7981 1
7983 7981 7991 1
7984 7981 7992 1
7985 7982 7984 1
7986 7999 7982 1
7987 7982 7993 1
7988 7982 7994 1
7989 7983 7984 1
7990 7987 7983 1
7991 7988 7983 2
7992 7986 7985 1
7993 7985 7996 1
7994 7989 7986 1
7995 7990 7986 2
7996 7995 7998 1
7997 7999 7995 1
7998 7995 8005 1
7999 7995 8006 1
8000 7996 7998 1
8001 7996 8007 1
8002 7996 8008 1
8003 7997 7998 1
8004 8001 7997 1
8005 8002 7997 2
8006 8000 7999 1
8007 8003 8000 1
8008 8004 8000 2
8009 8009 8012 1
8010 8013 8009 1
8011 8009 8019 1
8012 8009 8020 1
8013 8010 8012 1
8014 8027 8010 1
8015 8010 8021 1
8016 8010 8022 1
8017 8011 8012 1
8018 8015 8011 1
8019 8016 8011 2
8020 8014 8013 1
8021 8013 8024 1
8022 8017 8014 1
8023 8018 8014 2
8024 8023 8026 1
8025 8027 8023 1
8026 8023 8033 1
8027 8023 8034 1
8028 8024 8026 1
8029 8024 8035 1
8030 8024 8036 1
8031 8025 8026 1
8032 8029 8025 1
8033 8030 8025 2
8034 8028 8027 1
8035 8031 8028 1
8036 8032 8028 2
8037 8037 8040 1
8038 8041 8037 1
8039 8037 8047 1
8040 8037 8048 1
8041 8038 8040 1
8042 8055 8038 1
8043 8038 8049 1
8044 8038 8050 1
8045 8039 8040 1
8046 8043 8039 1
8047 8044 8039 2
8048 8042 8041 1
8049 8041 8052 1
8050 8045 8042 1
8051 8046 8042 2
8052 8051 8054 1
8053 8055 8051 1
8054 8051 8061 1
8055 8051 8062 1
8056 8052 8054 1
8057 8052 8063 1
8058 8052 8064 1
8059 8053 8054 1
8060 8057 8053 1
8061 8058 8053 2
8062 8056 8055 1
8063 8059 8056 1
8064 8060 8056 2
8065 8065 8068 1
8066 8069 8065 1
8067 8065 8075 1
8068 8065 8076 1
8069 8066 8068 1
8070 8083 8066 1
8071 8066 8077 1
8072 8066 8078 1
8073 8067 8068 1
8074 8071 8067 1
8075 8072 8067 2
8076 8070 8069 1
8077 8069 8080 1
8078 8073 8070 1
8079 8074 8070 2
8080 8079 8082 1
8081 8083 8079 1
8082 8079 8089 1
8083 8079 8090 1
8084 8080 8082 1
8085 8080 8091 1
8086 8080 8092 1
8087 8081 8082 1
8088 8085 8081 1
8089 8086 8081 2
8090 8084 8083 1
8091 8087 8084 1
8092 8088 8084 2
8093 8093 8096 1
8094 8097 8093 1
8095 8093 8103 1
8096 8093 8104 1
8097 8094 8096 1
8098 8111 8094 1
8099 8094 8105 1
8100 8094 8106 1
8101 8095 8096 1
8102 8099 8095 1
8103 8100 8095 2
8104 8098 8097 1
8105 8097 8108 1
8106 8101 8098 1
8107 8102 8098 2
8108 8107 8110 1
8109 8111 8107 1
8110 8107 8117 1
8111 8107 8118 1
8112 8108 8110 1
8113 8108 8119 1
8114 8108 8120 1
8115 8109 8110 1
8116 8113 8109 1
8117 8114 8109 2
8118 8112 8111 1
8119 8115 8112 1
8120 8116 8112 2
8121 8121 8124 1
8122 8125 8121 1
8123 8121 8131 1
8124 8121 8132 1
8125 8122 8124 1
8126 8139 8122 1
8127 8122 8133 1
8128 8122 8134 1
8129 8123 8124 1
8130 8127 8123 1
8131 8128 8123 2
8132 8126 8125 1
8133 8125 8136 1
8134 8129 8126 1
8135 8130 8126 2
8136 8135 8138 1
8137 8139 8135 1
8138 8135 8145 1
8139 8135 8146 1
8140 8136 8138 1
8141 8136 8147 1
8142 8136 8148 1
8143 8137 8138 1
8144 8141 8137 1
8145 8142 8137 2
8146 8140 8139 1
8147 8143 8140 1
8148 8144 8140 2
8149 8149 8152 1
8150 8153 8149 1
8151 8149 8159 1
8152 8149 8160 1
8153 8150 8152 1
8154 8167 8150 1
8155 8150 8161 1
8156 8150 8162 1
8157 8151 8152 1
8158 8155 8151 1
8159 8156 8151 2
8160 8154 8153 1
8161 8153 8164 1
8162 8157 8154 1
8163 8158 8154 2
8164 8163 8166 1
8165 8167 8163 1
8166 8163 8173 1
8167 8163 8174 1
8168 8164 8166 1
8169 8164 8175 1
8170 8164 8176 1
8171 8165 8166 1
8172 8169 8165 1
8173 8170 8165 2
8174 8168 8167 1
8175 8171 8168 1
8176 8172 8168 2
8177 8177 8180 1
8178 8181 8177 1
8179 8177 8187 1
8180 8177 8188 1
8181 8178 8180 1
8182 8195 8178 1
8183 8178 8189 1
8184 8178 8190 1
8185 8179 8180 1
8186 8183 8179 1
8187 8184 8179 2
8188 8182 8181 1
8189 8181 8192 1
8190 8185 8182 1
8191 8186 8182 2
8192 8191 8194 1
8193 8195 8191 1
8194 8191 8201 1
8195 8191 8202 1
8196 8192 8194 1
8197 8192 8203 1
8198 8192 8204 1
8199 8193 8194 1
8200 8197 8193 1
8201 8198 8193 2
8202 8196 8195 1
8203 8199 8196 1
8204 8200 8196 2
8205 8205 8208 1
8206 8209 8205 1
8207 8205 8215 1
8208 8205 8216 1
8209 8206 8208 1
8210 8223 8206 1
8211 8206 8217 1
8212 8206 8218 1
8213 8207 8208 1
8214 8211 8207 1
8215 8212 8207 2
8216 8210 8209 1
8217 8209 8220 1
8218 8213 8210 1
8219 8214 8210 2
8220 8219 8222 1
8221 8223 8219 1
8222 8219 8229 1
8223 8219 8230 1
8224 8220 8222 1
8225 8220 8231 1
8226 8220 8232 1
8227 8221 8222 1
8228 8225 8221 1
8229 8226 8221 2
8230 8224 8223 1
8231 8227 8224 1
8232 8228 8224 2
8233 8233 8236 1
8234 8237 8233 1
8235 8233 8243 1
8236 8233 8244 1
8237 8234 8236 1
8238 8251 8234 1
8239 8234 8245 1
8240 8234 8246 1
8241 8235 8236 1
8242 8239 8235 1
8243 8240 8235 2
8244 8238 8237 1
8245 8237 8248 1
8246 8241 8238 1
8247 8242 8238 2
8248 8247 8250 1
8249 8251 8247 1
8250 8247 8257 1
8251 8247 8258 1
8252 8248 8250 1
8253 8248 8259 1
8254 8248 8260 1
8255 8249 8250 1
8256 8253 8249 1
8257 8254 8249 2
8258 8252 8251 1
8259 8255 8252 1
8260 8256 8252 2
8261 8261 8264 1
8262 8265 8261 1
8263 8261 8271 1
8264 8261 8272 1
8265 8262 8264 1
8266 8279 8262 1
8267 8262 8273 1
8268 8262 8274 1
8269 8263 8264 1
8270 8267 8263 1
8271 8268 8263 2
8272 8266 8265 1
8273 8265 8276 1
8274 8269 8266 1
8275 8270 8266 2
8276 8275 8278 1
8277 8279 8275 1
8278 8275 8285 1
8279 8275 8286 1
8280 8276 8278 1
8281 8276 8287 1
8282 8276 8288 1
8283 8277 8278 1
8284 8281 8277 1
8285 8282 8277 2
8286 8280 8279 1
8287 8283 8280 1
8288 8284 8280 2
8289 8289 8292 1
8290 8293 8289 1
8291 8289 8299 1
8292 8289 8300 1
8293 8290 8292 1
8294 8307 8290 1
8295 8290 8301 1
8296 8290 8302 1
8297 8291 8292 1
8298 8295 8291 1
8299 8296 8291 2
8300 8294 8293 1
8301 8293 8304 1
8302 8297 8294 1
8303 8298 8294 2
8304 8303 8306 1
8305 8307 8303 1
8306 8303 8313 1
8307 8303 8314 1
8308 8304 8306 1
8309 8304 8315 1
8310 8304 8316 1
8311 8305 8306 1
8312 8309 8305 1
8313 8310 8305 2
8314 8308 8307 1
8315 8311 8308 1
8316 8312 8308 2
8317 8317 8320 1
8318 8321 8317 1
8319 8317 8327 1
8320 8317 8328 1
8321 8318 8320 1
8322 8335 8318 1
8323 8318 8329 1
8324 8318 8330 1
8325 8319 8320 1
8326 8323 8319 1
8327 8324 8319 2
8328 8322 8321 1
8329 8321 8332 1
8330 8325 8322 1
8331 8326 8322 2
8332 8331 8334 1
8333 8335 8331 1
8334 8331 8341 1
8335 8331 8342 1
8336 8332 8334 1
8337 8332 8343 1
8338 8332 8344 1
8339 8333 8334 1
8340 8337 8333 1
8341 8338 8333 2
8342 8336 8335 1
8343 8339 8336 1
8344 8340 8336 2
8345 8345 8348 1
8346 8349 8345 1
8347 8345 8355 1
8348 8345 8356 1
8349 8346 8348 1
8350 8363 8346 1
8351 8346 8357 1
8352 8346 8358 1
8353 8347 8348 1
8354 8351 8347 1
8355 8352 8347 2
8356 8350 8349 1
8357 8349 8360 1
8358 8353 8350 1
8359 8354 8350 2
8360 8359 8362 1
8361 8363 8359 1
8362 8359 8369 1
8363 8359 8370 1
8364 8360 8362 1
8365 8360 8371 1
8366 8360 8372 1
8367 8361 8362 1
8368 8365 8361 1
8369 8366 8361 2
8370 8364 8363 1
8371 8367 8364 1
8372 8368 8364 2
8373 8373 8376 1
8374 8377 8373 1
8375 8373 8383 1
8376 8373 8384 1
8377 8374 8376 1
8378 8391 8374 1
8379 8374 8385 1
8380 8374 8386 1
8381 8375 8376 1
8382 8379 8375 1
8383 8380 8375 2
8384 8378 8377 1
8385 8377 8388 1
8386 8381 8378 1
8387 8382 8378 2
8388 8387 8390 1
8389 8391 8387 1
8390 8387 8397 1
8391 8387 8398 1
8392 8388 8390 1
8393 8388 8399 1
8394 8388 8400 1
8395 8389 8390 1
8396 8393 8389 1
8397 8394 8389 2
8398 8392 8391 1
8399 8395 8392 1
8400 8396 8392 2
@<TRIPOS>CRYSIN
66.4148 39.24 90.3648 90 90 90 1 1
