# Mol2 file generated by Materials Studio
@<TRIPOS>MOLECULE
"BlockC3 H5 NC5 H10 O3"
25 24 2 0 0 
SMALL
USER_CHARGES


@<TRIPOS>ATOM
1 C1 48.835 9.96492 38.2366 C.3 1 C3H4N -0.106
2 C2 47.4544 9.66437 37.6053 C.3 1 C3H4N 0.088
3 H3 48.8533 11.0212 38.5633 H 1 C3H4N 0.053
4 H4 48.9174 9.37113 39.1648 H 1 C3H4N 0.053
5 C5 47.1696 10.3528 36.3726 C.1 1 C3H4N 0.234
6 H6 46.6727 9.92989 38.3359 H 1 C3H4N 0.053
7 H7 47.3509 8.58212 37.4273 H 1 C3H4N 0.053
8 N8 46.9447 10.8671 35.3574 N.1 1 C3H4N -0.428
9 H9 50.3473 11.8118 36.8641 H 2 C5H9O3 0.053
10 C10 50.4028 10.831 36.3631 C.3 2 C5H9O3 -0.159
11 C11 50.1109 9.72128 37.3979 C.3 2 C5H9O3 -0.053
12 H12 49.6837 10.8347 35.5319 H 2 C5H9O3 0.053
13 H13 51.416 10.734 35.9406 H 2 C5H9O3 0.053
14 C14 50.1671 8.33127 36.8075 C.2 2 C5H9O3 0.562
15 H15 50.9543 9.74778 38.1177 H 2 C5H9O3 0.053
16 O16 49.6585 7.32823 37.2509 O.co2 2 C5H9O3 -0.45
17 O17 50.9241 8.36416 35.6832 O.co2 2 C5H9O3 -0.272
18 C18 51.1443 7.13959 34.9491 C.3 2 C5H9O3 0.054
19 C19 52.2135 6.2644 35.5318 C.3 2 C5H9O3 0.054
20 H20 51.4603 7.45318 33.9418 H 2 C5H9O3 0.053
21 H21 50.1987 6.58696 34.8399 H 2 C5H9O3 0.053
22 O22 53.4677 6.93856 35.4713 O.3 2 C5H9O3 -0.57
23 H23 52.265 5.31584 34.9666 H 2 C5H9O3 0.053
24 H24 51.96 6.01725 36.5784 H 2 C5H9O3 0.053
25 H25 54.0892 6.42816 35.9797 H 2 C5H9O3 0.41
@<TRIPOS>BOND
1 1 2 1
2 1 3 1
3 1 4 1
4 1 11 1
5 2 5 1
6 2 6 1
7 2 7 1
8 5 8 3
9 10 9 1
10 10 11 1
11 10 12 1
12 10 13 1
13 11 14 1
14 11 15 1
15 14 16 2
16 14 17 1
17 17 18 1
18 18 19 1
19 18 20 1
20 18 21 1
21 19 22 1
22 19 23 1
23 19 24 1
24 22 25 1
@<TRIPOS>SUBSTRUCTURE
1 C3H4N 1 **** **** Bloc
2 C5H9O3 9 **** **** Bloc
@<TRIPOS>CRYSIN
66.4148 39.24 90.3648 90 90 90 1 1
